<?xml version="1.0" encoding="UTF-8"?>

<!-- generated on 2026-02-11T01:32:28.401867+04:00 by Eclipse SUMO netedit 1.25.0
<neteditConfiguration xmlns:xsi="http://www.w3.org/2001/XMLSchema-instance" xsi:noNamespaceSchemaLocation="http://sumo.dlr.de/xsd/neteditConfiguration.xsd">

    <input>
        <sumocfg-file value="C:\Users\Edawi\OneDrive\Desktop\work\Map1\RL.sumocfg"/>
        <additional-files value="C:\Users\Edawi\OneDrive\Desktop\work\Map1\RL.add.xml"/>
        <route-files value="C:\Users\Edawi\OneDrive\Desktop\work\Map1\RL.rou.xml"/>
        <sumo-net-file value="C:\Users\Edawi\OneDrive\Desktop\work\Map1\RL.net.xml"/>
    </input>

    <output>
        <output-file value="C:\Users\Edawi\OneDrive\Desktop\work\Map1\RL.net.xml"/>
    </output>

    <processing>
        <geometry.min-radius.fix.railways value="false"/>
        <geometry.avoid-overlap value="false"/>
        <geometry.max-grade.fix value="false"/>
        <offset.disable-normalization value="true"/>
        <lefthand value="0"/>
    </processing>

    <junctions>
        <no-turnarounds value="true"/>
        <junctions.corner-detail value="5"/>
        <junctions.limit-turn-speed value="5.50"/>
        <rectangular-lane-cut value="0"/>
    </junctions>

    <pedestrian>
        <walkingareas value="0"/>
    </pedestrian>

    <netedit>
        <ignore.routeelements value="false"/>
    </netedit>

</neteditConfiguration>
-->

<net version="1.20" junctionCornerDetail="5" limitTurnSpeed="5.50" avoidOverlap="0" xmlns:xsi="http://www.w3.org/2001/XMLSchema-instance" xsi:noNamespaceSchemaLocation="http://sumo.dlr.de/xsd/net_file.xsd">

    <location netOffset="0.00,0.00" convBoundary="-500.00,-500.00,500.00,400.00" origBoundary="-10000000000.00,-10000000000.00,10000000000.00,10000000000.00" projParameter="!"/>

    <edge id=":J23_0" function="internal">
        <lane id=":J23_0_0" index="0" speed="9.33" length="14.84" shape="-8.00,-189.08 -8.69,-191.56 -10.74,-193.86 -14.17,-195.97 -18.96,-197.89"/>
    </edge>
    <edge id=":J23_1" function="internal">
        <lane id=":J23_1_0" index="0" speed="13.89" length="28.24" shape="-8.00,-189.08 -8.00,-217.32"/>
        <lane id=":J23_1_1" index="1" speed="13.89" length="28.24" shape="-4.80,-189.08 -4.80,-217.32"/>
        <lane id=":J23_1_2" index="2" speed="13.89" length="28.24" shape="-1.60,-189.08 -1.60,-217.32"/>
    </edge>
    <edge id=":J23_4" function="internal">
        <lane id=":J23_4_0" index="0" speed="12.40" length="3.76" shape="-1.60,-189.08 -0.88,-192.77"/>
    </edge>
    <edge id=":J23_20" function="internal">
        <lane id=":J23_20_0" index="0" speed="12.40" length="23.05" shape="-0.88,-192.77 -0.50,-194.73 2.78,-199.60 8.26,-203.68 15.92,-206.99"/>
    </edge>
    <edge id=":J23_5" function="internal">
        <lane id=":J23_5_0" index="0" speed="9.33" length="14.84" shape="18.96,-197.89 14.17,-195.97 10.74,-193.86 8.69,-191.56 8.00,-189.08"/>
    </edge>
    <edge id=":J23_6" function="internal">
        <lane id=":J23_6_0" index="0" speed="13.89" length="36.72" shape="18.96,-197.89 9.03,-195.22 0.00,-194.33 -9.03,-195.22 -18.96,-197.89"/>
        <lane id=":J23_6_1" index="1" speed="13.89" length="36.72" shape="17.95,-200.92 8.34,-198.25 -0.00,-197.37 -8.34,-198.25 -17.95,-200.92"/>
        <lane id=":J23_6_2" index="2" speed="13.89" length="36.72" shape="16.94,-203.96 7.64,-201.29 0.00,-200.40 -7.64,-201.29 -16.94,-203.96"/>
    </edge>
    <edge id=":J23_9" function="internal">
        <lane id=":J23_9_0" index="0" speed="10.04" length="28.58" shape="16.94,-203.96 8.83,-202.48 3.03,-204.21 -0.44,-209.16 -1.60,-217.32"/>
    </edge>
    <edge id=":J23_10" function="internal">
        <lane id=":J23_10_0" index="0" speed="5.92" length="9.10" shape="8.00,-217.32 8.37,-214.72 9.48,-213.15 11.32,-212.59 13.90,-213.07"/>
    </edge>
    <edge id=":J23_11" function="internal">
        <lane id=":J23_11_0" index="0" speed="13.89" length="28.24" shape="8.00,-217.32 8.00,-189.08"/>
        <lane id=":J23_11_1" index="1" speed="13.89" length="28.24" shape="4.80,-217.32 4.80,-189.08"/>
        <lane id=":J23_11_2" index="2" speed="13.89" length="28.24" shape="1.60,-217.32 1.60,-189.08"/>
    </edge>
    <edge id=":J23_14" function="internal">
        <lane id=":J23_14_0" index="0" speed="10.04" length="5.04" shape="1.60,-217.32 0.89,-212.32"/>
    </edge>
    <edge id=":J23_21" function="internal">
        <lane id=":J23_21_0" index="0" speed="10.04" length="23.54" shape="0.89,-212.32 0.44,-209.16 -3.03,-204.21 -8.83,-202.48 -16.94,-203.96"/>
    </edge>
    <edge id=":J23_15" function="internal">
        <lane id=":J23_15_0" index="0" speed="5.92" length="9.10" shape="-13.90,-213.07 -11.32,-212.59 -9.48,-213.15 -8.37,-214.72 -8.00,-217.32"/>
    </edge>
    <edge id=":J23_16" function="internal">
        <lane id=":J23_16_0" index="0" speed="13.89" length="30.71" shape="-13.90,-213.07 -5.85,-210.59 -0.00,-209.77 5.85,-210.59 13.90,-213.07"/>
        <lane id=":J23_16_1" index="1" speed="13.89" length="30.71" shape="-14.91,-210.03 -6.27,-207.38 0.00,-206.49 6.27,-207.38 14.91,-210.03"/>
        <lane id=":J23_16_2" index="2" speed="13.89" length="30.71" shape="-15.92,-206.99 -6.95,-204.33 0.00,-203.44 6.95,-204.33 15.92,-206.99"/>
    </edge>
    <edge id=":J23_19" function="internal">
        <lane id=":J23_19_0" index="0" speed="12.40" length="26.81" shape="-15.92,-206.99 -8.26,-203.68 -2.78,-199.60 0.50,-194.73 1.60,-189.08"/>
    </edge>
    <edge id=":J24_0" function="internal">
        <lane id=":J24_0_0" index="0" speed="13.89" length="0.10" shape="-8.00,-300.00 -8.00,-300.00"/>
        <lane id=":J24_0_1" index="1" speed="13.89" length="0.10" shape="-4.80,-300.00 -4.80,-300.00"/>
        <lane id=":J24_0_2" index="2" speed="13.89" length="0.10" shape="-1.60,-300.00 -1.60,-300.00"/>
    </edge>
    <edge id=":J24_3" function="internal">
        <lane id=":J24_3_0" index="0" speed="13.89" length="0.10" shape="8.00,-300.00 8.00,-300.00"/>
        <lane id=":J24_3_1" index="1" speed="13.89" length="0.10" shape="4.80,-300.00 4.80,-300.00"/>
        <lane id=":J24_3_2" index="2" speed="13.89" length="0.10" shape="1.60,-300.00 1.60,-300.00"/>
    </edge>
    <edge id=":J25_0" function="internal">
        <lane id=":J25_0_0" index="0" speed="5.92" length="9.10" shape="-8.00,-382.68 -8.37,-385.28 -9.48,-386.85 -11.32,-387.41 -13.90,-386.93"/>
    </edge>
    <edge id=":J25_1" function="internal">
        <lane id=":J25_1_0" index="0" speed="13.89" length="28.24" shape="-8.00,-382.68 -8.00,-410.92"/>
        <lane id=":J25_1_1" index="1" speed="13.89" length="28.24" shape="-4.80,-382.68 -4.80,-410.92"/>
        <lane id=":J25_1_2" index="2" speed="13.89" length="28.24" shape="-1.60,-382.68 -1.60,-410.92"/>
    </edge>
    <edge id=":J25_4" function="internal">
        <lane id=":J25_4_0" index="0" speed="10.04" length="5.04" shape="-1.60,-382.68 -0.89,-387.68"/>
    </edge>
    <edge id=":J25_20" function="internal">
        <lane id=":J25_20_0" index="0" speed="10.04" length="23.54" shape="-0.89,-387.68 -0.44,-390.84 3.03,-395.79 8.83,-397.52 16.94,-396.04"/>
    </edge>
    <edge id=":J25_5" function="internal">
        <lane id=":J25_5_0" index="0" speed="5.92" length="9.10" shape="13.90,-386.93 11.32,-387.41 9.48,-386.85 8.37,-385.28 8.00,-382.68"/>
    </edge>
    <edge id=":J25_6" function="internal">
        <lane id=":J25_6_0" index="0" speed="13.89" length="30.71" shape="13.90,-386.93 5.85,-389.41 0.00,-390.23 -5.85,-389.41 -13.90,-386.93"/>
        <lane id=":J25_6_1" index="1" speed="13.89" length="30.71" shape="14.91,-389.97 6.27,-392.62 -0.00,-393.51 -6.27,-392.62 -14.91,-389.97"/>
        <lane id=":J25_6_2" index="2" speed="13.89" length="30.71" shape="15.92,-393.01 6.95,-395.67 0.00,-396.56 -6.95,-395.67 -15.92,-393.01"/>
    </edge>
    <edge id=":J25_9" function="internal">
        <lane id=":J25_9_0" index="0" speed="12.40" length="26.81" shape="15.92,-393.01 8.26,-396.32 2.78,-400.40 -0.50,-405.27 -1.60,-410.92"/>
    </edge>
    <edge id=":J25_10" function="internal">
        <lane id=":J25_10_0" index="0" speed="9.33" length="14.84" shape="8.00,-410.92 8.69,-408.44 10.74,-406.14 14.17,-404.03 18.96,-402.11"/>
    </edge>
    <edge id=":J25_11" function="internal">
        <lane id=":J25_11_0" index="0" speed="13.89" length="28.24" shape="8.00,-410.92 8.00,-382.68"/>
        <lane id=":J25_11_1" index="1" speed="13.89" length="28.24" shape="4.80,-410.92 4.80,-382.68"/>
        <lane id=":J25_11_2" index="2" speed="13.89" length="28.24" shape="1.60,-410.92 1.60,-382.68"/>
    </edge>
    <edge id=":J25_14" function="internal">
        <lane id=":J25_14_0" index="0" speed="12.40" length="3.76" shape="1.60,-410.92 0.88,-407.23"/>
    </edge>
    <edge id=":J25_21" function="internal">
        <lane id=":J25_21_0" index="0" speed="12.40" length="23.05" shape="0.88,-407.23 0.50,-405.27 -2.78,-400.40 -8.26,-396.32 -15.92,-393.01"/>
    </edge>
    <edge id=":J25_15" function="internal">
        <lane id=":J25_15_0" index="0" speed="9.33" length="14.84" shape="-18.96,-402.11 -14.17,-404.03 -10.74,-406.14 -8.69,-408.44 -8.00,-410.92"/>
    </edge>
    <edge id=":J25_16" function="internal">
        <lane id=":J25_16_0" index="0" speed="13.89" length="36.72" shape="-18.96,-402.11 -9.03,-404.78 0.00,-405.67 9.03,-404.78 18.96,-402.11"/>
        <lane id=":J25_16_1" index="1" speed="13.89" length="36.72" shape="-17.95,-399.08 -8.34,-401.75 0.00,-402.63 8.34,-401.75 17.95,-399.08"/>
        <lane id=":J25_16_2" index="2" speed="13.89" length="36.72" shape="-16.94,-396.04 -7.64,-398.71 0.00,-399.60 7.64,-398.71 16.94,-396.04"/>
    </edge>
    <edge id=":J25_19" function="internal">
        <lane id=":J25_19_0" index="0" speed="10.04" length="28.58" shape="-16.94,-396.04 -8.83,-397.52 -3.03,-395.79 0.44,-390.84 1.60,-382.68"/>
    </edge>
    <edge id=":J26_0" function="internal">
        <lane id=":J26_0_0" index="0" speed="13.89" length="0.10" shape="205.66,-194.34 205.66,-194.34"/>
        <lane id=":J26_0_1" index="1" speed="13.89" length="0.10" shape="203.39,-196.61 203.39,-196.61"/>
        <lane id=":J26_0_2" index="2" speed="13.89" length="0.10" shape="201.13,-198.87 201.13,-198.87"/>
    </edge>
    <edge id=":J26_3" function="internal">
        <lane id=":J26_3_0" index="0" speed="13.89" length="0.10" shape="194.34,-205.66 194.34,-205.66"/>
        <lane id=":J26_3_1" index="1" speed="13.89" length="0.10" shape="196.61,-203.39 196.61,-203.39"/>
        <lane id=":J26_3_2" index="2" speed="13.89" length="0.10" shape="198.87,-201.13 198.87,-201.13"/>
    </edge>
    <edge id=":J27_0" function="internal">
        <lane id=":J27_0_0" index="0" speed="8.17" length="23.77" shape="292.00,-272.82 290.88,-275.14 287.52,-274.24 281.92,-270.11 274.07,-262.76"/>
    </edge>
    <edge id=":J27_1" function="internal">
        <lane id=":J27_1_0" index="0" speed="11.98" length="41.23" shape="295.20,-272.82 293.01,-279.59 286.44,-282.76 275.49,-282.32 260.16,-278.29"/>
    </edge>
    <edge id=":J27_2" function="internal">
        <lane id=":J27_2_0" index="0" speed="13.89" length="46.39" shape="295.20,-272.82 293.46,-283.78 288.24,-292.93 279.54,-300.28 267.37,-305.82"/>
    </edge>
    <edge id=":J27_3" function="internal">
        <lane id=":J27_3_0" index="0" speed="13.89" length="46.04" shape="295.20,-272.82 296.05,-286.44 298.61,-298.11 302.88,-307.84 308.85,-315.64"/>
        <lane id=":J27_3_1" index="1" speed="13.89" length="43.53" shape="298.40,-272.82 299.19,-285.80 301.58,-296.88 305.55,-306.08 311.12,-313.38"/>
    </edge>
    <edge id=":J27_5" function="internal">
        <lane id=":J27_5_0" index="0" speed="10.70" length="35.49" shape="298.40,-272.82 299.53,-283.48 303.07,-291.21 309.22,-294.72 318.19,-292.70"/>
    </edge>
    <edge id=":J27_6" function="internal">
        <lane id=":J27_6_0" index="0" speed="7.19" length="15.25" shape="313.89,-284.11 311.31,-284.51 309.47,-282.76 308.37,-278.87 308.00,-272.82"/>
    </edge>
    <edge id=":J27_7" function="internal">
        <lane id=":J27_7_0" index="0" speed="13.89" length="47.25" shape="313.89,-284.11 306.79,-285.08 297.78,-281.85 286.88,-274.41 274.07,-262.76"/>
    </edge>
    <edge id=":J27_8" function="internal">
        <lane id=":J27_8_0" index="0" speed="13.89" length="57.40" shape="315.32,-286.97 302.89,-289.59 287.54,-288.44 272.04,-285.15 259.14,-281.32"/>
    </edge>
    <edge id=":J27_9" function="internal">
        <lane id=":J27_9_0" index="0" speed="13.89" length="51.83" shape="315.32,-286.97 304.01,-291.60 291.14,-295.61 278.12,-299.25 266.35,-302.78"/>
        <lane id=":J27_9_1" index="1" speed="13.89" length="51.83" shape="316.76,-289.83 305.38,-294.49 292.37,-298.56 279.20,-302.26 267.37,-305.82"/>
        <lane id=":J27_9_2" index="2" speed="13.89" length="51.83" shape="316.76,-289.83 305.54,-294.97 292.87,-300.08 280.05,-304.82 268.38,-308.85"/>
    </edge>
    <edge id=":J27_12" function="internal">
        <lane id=":J27_12_0" index="0" speed="10.28" length="30.05" shape="316.76,-289.83 309.46,-294.71 305.86,-300.29 306.29,-306.53 311.12,-313.38"/>
    </edge>
    <edge id=":J27_13" function="internal">
        <lane id=":J27_13_0" index="0" speed="6.39" length="10.79" shape="317.90,-306.59 316.45,-304.43 316.49,-302.35 318.02,-300.34 321.05,-298.42"/>
    </edge>
    <edge id=":J27_14" function="internal">
        <lane id=":J27_14_0" index="0" speed="13.89" length="36.01" shape="317.90,-306.59 313.57,-300.77 310.48,-293.20 308.62,-283.88 308.00,-272.82"/>
    </edge>
    <edge id=":J27_15" function="internal">
        <lane id=":J27_15_0" index="0" speed="13.89" length="61.99" shape="317.90,-306.59 274.07,-262.76"/>
        <lane id=":J27_15_1" index="1" speed="13.89" length="61.99" shape="315.64,-308.85 271.81,-265.02"/>
        <lane id=":J27_15_2" index="2" speed="13.89" length="61.99" shape="313.38,-311.12 269.55,-267.28"/>
    </edge>
    <edge id=":J27_18" function="internal">
        <lane id=":J27_18_0" index="0" speed="13.89" length="4.42" shape="313.38,-311.12 309.79,-308.54"/>
    </edge>
    <edge id=":J27_19" function="internal">
        <lane id=":J27_19_0" index="0" speed="13.89" length="3.49" shape="313.38,-311.12 310.46,-309.21"/>
    </edge>
    <edge id=":J27_41" function="internal">
        <lane id=":J27_41_0" index="0" speed="13.89" length="57.29" shape="309.79,-308.54 302.27,-303.13 287.11,-295.54 271.28,-289.05 258.13,-284.36"/>
    </edge>
    <edge id=":J27_42" function="internal">
        <lane id=":J27_42_0" index="0" speed="13.89" length="43.73" shape="310.46,-309.21 305.71,-306.12 295.65,-304.08 283.21,-304.99 268.38,-308.85"/>
    </edge>
    <edge id=":J27_20" function="internal">
        <lane id=":J27_20_0" index="0" speed="13.89" length="36.66" shape="271.41,-317.96 283.52,-314.65 293.42,-313.54 301.11,-314.63 306.59,-317.90"/>
    </edge>
    <edge id=":J27_21" function="internal">
        <lane id=":J27_21_0" index="0" speed="13.89" length="53.01" shape="271.41,-317.96 283.29,-313.85 296.54,-308.93 309.63,-303.64 321.05,-298.42"/>
        <lane id=":J27_21_1" index="1" speed="13.89" length="53.01" shape="270.40,-314.93 282.21,-310.84 295.31,-305.98 308.27,-300.75 319.62,-295.56"/>
        <lane id=":J27_21_2" index="2" speed="13.89" length="53.01" shape="270.40,-314.93 281.98,-310.39 294.60,-304.55 307.06,-298.33 318.19,-292.70"/>
    </edge>
    <edge id=":J27_24" function="internal">
        <lane id=":J27_24_0" index="0" speed="13.89" length="58.46" shape="270.40,-314.93 285.45,-307.99 296.20,-298.67 302.65,-286.94 304.80,-272.82"/>
    </edge>
    <edge id=":J27_25" function="internal">
        <lane id=":J27_25_0" index="0" speed="13.89" length="63.20" shape="270.40,-314.93 284.48,-306.19 288.33,-294.04 283.56,-279.86 271.81,-265.02"/>
        <lane id=":J27_25_1" index="1" speed="13.40" length="56.46" shape="269.39,-311.89 281.80,-304.08 284.86,-293.22 280.22,-280.54 269.55,-267.28"/>
    </edge>
    <edge id=":J27_27" function="internal">
        <lane id=":J27_27_0" index="0" speed="10.10" length="39.72" shape="269.39,-311.89 276.45,-306.12 275.52,-298.12 268.71,-290.13 258.13,-284.36"/>
    </edge>
    <edge id=":J27_28" function="internal">
        <lane id=":J27_28_0" index="0" speed="7.17" length="19.11" shape="255.10,-293.46 263.15,-296.50 267.71,-299.06 268.78,-301.16 266.35,-302.78"/>
    </edge>
    <edge id=":J27_29" function="internal">
        <lane id=":J27_29_0" index="0" speed="13.89" length="58.07" shape="255.10,-293.46 267.65,-297.79 282.20,-303.49 296.07,-310.28 306.59,-317.90"/>
        <lane id=":J27_29_1" index="1" speed="13.89" length="58.07" shape="256.11,-290.43 268.86,-294.88 283.84,-300.84 298.14,-307.89 308.85,-315.64"/>
    </edge>
    <edge id=":J27_31" function="internal">
        <lane id=":J27_31_0" index="0" speed="13.89" length="65.03" shape="256.11,-290.43 276.67,-296.28 294.12,-299.09 308.43,-298.85 319.62,-295.56"/>
    </edge>
    <edge id=":J27_32" function="internal">
        <lane id=":J27_32_0" index="0" speed="13.89" length="57.44" shape="257.12,-287.39 274.48,-292.03 288.61,-292.38 298.12,-286.59 301.60,-272.82"/>
    </edge>
    <edge id=":J27_33" function="internal">
        <lane id=":J27_33_0" index="0" speed="8.83" length="32.33" shape="257.12,-287.39 265.62,-287.31 271.49,-282.38 273.28,-274.93 269.55,-267.28"/>
    </edge>
    <edge id=":J27_34" function="internal">
        <lane id=":J27_34_0" index="0" speed="5.60" length="11.85" shape="262.76,-274.07 265.45,-277.19 265.92,-278.94 264.15,-279.30 260.16,-278.29"/>
    </edge>
    <edge id=":J27_35" function="internal">
        <lane id=":J27_35_0" index="0" speed="10.87" length="36.66" shape="262.76,-274.07 271.40,-284.28 274.87,-292.47 273.19,-298.63 266.35,-302.78"/>
    </edge>
    <edge id=":J27_36" function="internal">
        <lane id=":J27_36_0" index="0" speed="13.89" length="61.99" shape="262.76,-274.07 306.59,-317.90"/>
        <lane id=":J27_36_1" index="1" speed="13.89" length="61.99" shape="265.02,-271.81 308.85,-315.64"/>
        <lane id=":J27_36_2" index="2" speed="13.89" length="61.99" shape="267.28,-269.55 311.12,-313.38"/>
    </edge>
    <edge id=":J27_39" function="internal">
        <lane id=":J27_39_0" index="0" speed="13.89" length="11.72" shape="267.28,-269.55 276.05,-277.33"/>
    </edge>
    <edge id=":J27_40" function="internal">
        <lane id=":J27_40_0" index="0" speed="11.10" length="6.57" shape="267.28,-269.55 272.41,-273.67"/>
    </edge>
    <edge id=":J27_43" function="internal">
        <lane id=":J27_43_0" index="0" speed="13.89" length="47.34" shape="276.05,-277.33 282.62,-283.14 296.21,-291.53 308.07,-294.72 318.19,-292.70"/>
    </edge>
    <edge id=":J27_44" function="internal">
        <lane id=":J27_44_0" index="0" speed="11.10" length="38.65" shape="272.41,-273.67 278.36,-278.47 289.52,-283.45 298.14,-282.30 301.60,-272.82"/>
    </edge>
    <edge id=":J28_0" function="internal">
        <lane id=":J28_0_0" index="0" speed="13.89" length="0.10" shape="194.34,105.66 194.34,105.66"/>
        <lane id=":J28_0_1" index="1" speed="13.89" length="0.10" shape="196.61,103.39 196.61,103.39"/>
        <lane id=":J28_0_2" index="2" speed="13.89" length="0.10" shape="198.87,101.13 198.87,101.13"/>
    </edge>
    <edge id=":J28_3" function="internal">
        <lane id=":J28_3_0" index="0" speed="13.89" length="0.10" shape="205.66,94.34 205.66,94.34"/>
        <lane id=":J28_3_1" index="1" speed="13.89" length="0.10" shape="203.39,96.61 203.39,96.61"/>
        <lane id=":J28_3_2" index="2" speed="13.89" length="0.10" shape="201.13,98.87 201.13,98.87"/>
    </edge>
    <edge id=":J29_0" function="internal">
        <lane id=":J29_0_0" index="0" speed="11.05" length="23.79" shape="306.59,217.90 302.37,215.17 297.33,214.56 291.47,216.10 284.78,219.76"/>
    </edge>
    <edge id=":J29_1" function="internal">
        <lane id=":J29_1_0" index="0" speed="13.89" length="57.34" shape="306.59,217.90 296.07,210.28 282.20,203.49 267.65,197.79 255.10,193.46"/>
    </edge>
    <edge id=":J29_2" function="internal">
        <lane id=":J29_2_0" index="0" speed="13.89" length="61.99" shape="306.59,217.90 262.76,174.07"/>
        <lane id=":J29_2_1" index="1" speed="13.89" length="61.99" shape="308.85,215.64 265.02,171.81"/>
        <lane id=":J29_2_2" index="2" speed="13.89" length="61.99" shape="311.12,213.38 267.28,169.55"/>
    </edge>
    <edge id=":J29_5" function="internal">
        <lane id=":J29_5_0" index="0" speed="13.89" length="5.28" shape="311.12,213.38 307.91,209.17"/>
    </edge>
    <edge id=":J29_6" function="internal">
        <lane id=":J29_6_0" index="0" speed="10.28" length="4.18" shape="311.12,213.38 308.71,209.96"/>
    </edge>
    <edge id=":J29_41" function="internal">
        <lane id=":J29_41_0" index="0" speed="13.89" length="38.25" shape="307.91,209.17 305.55,206.08 301.58,196.88 299.19,185.80 298.40,172.82"/>
    </edge>
    <edge id=":J29_42" function="internal">
        <lane id=":J29_42_0" index="0" speed="10.28" length="25.87" shape="308.71,209.96 306.29,206.53 305.86,200.29 309.46,194.71 316.76,189.83"/>
    </edge>
    <edge id=":J29_7" function="internal">
        <lane id=":J29_7_0" index="0" speed="6.39" length="10.79" shape="321.05,198.42 318.02,200.34 316.49,202.35 316.45,204.43 317.90,206.59"/>
    </edge>
    <edge id=":J29_8" function="internal">
        <lane id=":J29_8_0" index="0" speed="13.89" length="42.48" shape="321.05,198.42 311.48,203.41 302.56,208.49 293.82,213.86 284.78,219.76"/>
        <lane id=":J29_8_1" index="1" speed="13.89" length="42.48" shape="319.62,195.56 309.99,200.58 300.96,205.72 292.10,211.17 283.00,217.10"/>
        <lane id=":J29_8_2" index="2" speed="13.89" length="42.48" shape="319.62,195.56 309.71,200.17 300.07,204.39 290.60,208.92 281.23,214.44"/>
    </edge>
    <edge id=":J29_11" function="internal">
        <lane id=":J29_11_0" index="0" speed="13.89" length="64.56" shape="319.62,195.56 306.04,198.25 288.17,197.29 270.15,194.17 256.11,190.43"/>
    </edge>
    <edge id=":J29_12" function="internal">
        <lane id=":J29_12_0" index="0" speed="13.89" length="63.02" shape="319.62,195.56 308.49,197.93 295.69,194.76 281.20,186.06 265.02,171.81"/>
        <lane id=":J29_12_1" index="1" speed="13.89" length="59.06" shape="318.19,192.70 308.07,194.72 296.21,191.53 282.62,183.14 267.28,169.55"/>
    </edge>
    <edge id=":J29_14" function="internal">
        <lane id=":J29_14_0" index="0" speed="10.70" length="35.49" shape="318.19,192.70 309.22,194.72 303.07,191.21 299.53,183.48 298.40,172.82"/>
    </edge>
    <edge id=":J29_15" function="internal">
        <lane id=":J29_15_0" index="0" speed="7.19" length="15.25" shape="308.00,172.82 308.37,178.87 309.47,182.76 311.31,184.51 313.89,184.11"/>
    </edge>
    <edge id=":J29_16" function="internal">
        <lane id=":J29_16_0" index="0" speed="13.89" length="36.01" shape="308.00,172.82 308.62,183.88 310.48,193.20 313.57,200.77 317.90,206.59"/>
        <lane id=":J29_16_1" index="1" speed="13.89" length="38.52" shape="304.80,172.82 305.48,184.52 307.51,194.42 310.90,202.54 315.64,208.85"/>
    </edge>
    <edge id=":J29_18" function="internal">
        <lane id=":J29_18_0" index="0" speed="13.89" length="51.47" shape="304.80,172.82 303.44,186.75 299.35,198.77 292.54,208.88 283.00,217.10"/>
    </edge>
    <edge id=":J29_19" function="internal">
        <lane id=":J29_19_0" index="0" speed="13.89" length="57.44" shape="301.60,172.82 298.12,186.59 288.61,192.38 274.48,192.03 257.12,187.39"/>
    </edge>
    <edge id=":J29_20" function="internal">
        <lane id=":J29_20_0" index="0" speed="11.10" length="45.22" shape="301.60,172.82 298.14,182.30 289.52,183.45 278.36,178.47 267.28,169.55"/>
    </edge>
    <edge id=":J29_21" function="internal">
        <lane id=":J29_21_0" index="0" speed="8.17" length="23.77" shape="274.07,162.76 281.92,170.11 287.52,174.24 290.88,175.14 292.00,172.82"/>
    </edge>
    <edge id=":J29_22" function="internal">
        <lane id=":J29_22_0" index="0" speed="13.89" length="47.25" shape="274.07,162.76 286.88,174.41 297.78,181.85 306.79,185.08 313.89,184.11"/>
    </edge>
    <edge id=":J29_23" function="internal">
        <lane id=":J29_23_0" index="0" speed="13.89" length="61.99" shape="274.07,162.76 317.90,206.59"/>
        <lane id=":J29_23_1" index="1" speed="13.89" length="61.99" shape="271.81,165.02 315.64,208.85"/>
        <lane id=":J29_23_2" index="2" speed="13.89" length="61.99" shape="269.55,167.28 313.38,211.12"/>
    </edge>
    <edge id=":J29_26" function="internal">
        <lane id=":J29_26_0" index="0" speed="13.89" length="13.24" shape="269.55,167.28 278.40,177.13"/>
    </edge>
    <edge id=":J29_27" function="internal">
        <lane id=":J29_27_0" index="0" speed="8.83" length="2.30" shape="269.55,167.28 270.56,169.35"/>
    </edge>
    <edge id=":J29_43" function="internal">
        <lane id=":J29_43_0" index="0" speed="13.89" length="43.72" shape="278.40,177.13 281.92,181.04 289.19,193.58 289.57,204.77 281.23,214.44"/>
    </edge>
    <edge id=":J29_44" function="internal">
        <lane id=":J29_44_0" index="0" speed="8.83" length="30.03" shape="270.56,169.35 273.28,174.93 271.49,182.38 265.62,187.31 257.12,187.39"/>
    </edge>
    <edge id=":J29_28" function="internal">
        <lane id=":J29_28_0" index="0" speed="5.60" length="11.85" shape="260.16,178.29 264.15,179.30 265.92,178.94 265.45,177.19 262.76,174.07"/>
    </edge>
    <edge id=":J29_29" function="internal">
        <lane id=":J29_29_0" index="0" speed="11.47" length="37.73" shape="260.16,178.29 274.09,181.92 284.04,182.23 290.01,179.19 292.00,172.82"/>
    </edge>
    <edge id=":J29_30" function="internal">
        <lane id=":J29_30_0" index="0" speed="13.89" length="57.54" shape="259.14,181.32 277.84,186.74 293.43,189.48 305.93,189.56 315.32,186.97"/>
    </edge>
    <edge id=":J29_31" function="internal">
        <lane id=":J29_31_0" index="0" speed="13.89" length="62.43" shape="259.14,181.32 272.48,186.13 288.75,192.89 304.34,200.74 315.64,208.85"/>
        <lane id=":J29_31_1" index="1" speed="13.89" length="62.43" shape="258.13,184.36 271.28,189.05 287.11,195.54 302.27,203.13 313.38,211.12"/>
    </edge>
    <edge id=":J29_33" function="internal">
        <lane id=":J29_33_0" index="0" speed="11.89" length="49.03" shape="258.13,184.36 272.64,190.22 283.75,197.51 287.83,205.74 281.23,214.44"/>
    </edge>
    <edge id=":J29_34" function="internal">
        <lane id=":J29_34_0" index="0" speed="8.93" length="27.02" shape="275.90,206.45 276.87,204.13 273.73,201.19 266.47,197.63 255.10,193.46"/>
    </edge>
    <edge id=":J29_35" function="internal">
        <lane id=":J29_35_0" index="0" speed="12.11" length="38.97" shape="275.90,206.45 279.41,201.54 278.39,194.51 272.84,185.35 262.76,174.07"/>
    </edge>
    <edge id=":J29_36" function="internal">
        <lane id=":J29_36_0" index="0" speed="13.89" length="42.02" shape="277.68,209.11 285.34,202.46 290.82,194.20 294.10,184.32 295.20,172.82"/>
    </edge>
    <edge id=":J29_37" function="internal">
        <lane id=":J29_37_0" index="0" speed="13.89" length="43.67" shape="277.68,209.11 286.71,202.64 295.43,196.01 304.33,189.68 313.89,184.11"/>
        <lane id=":J29_37_1" index="1" speed="13.89" length="43.67" shape="279.45,211.78 288.44,205.33 297.04,198.77 305.81,192.51 315.32,186.97"/>
        <lane id=":J29_37_2" index="2" speed="13.89" length="43.67" shape="279.45,211.78 288.66,205.78 297.75,200.20 307.02,194.92 316.76,189.83"/>
    </edge>
    <edge id=":J29_40" function="internal">
        <lane id=":J29_40_0" index="0" speed="13.71" length="37.09" shape="279.45,211.78 289.35,206.55 298.31,204.69 306.32,206.22 313.38,211.12"/>
    </edge>
    <edge id=":J30_0" function="internal">
        <lane id=":J30_0_0" index="0" speed="13.89" length="0.10" shape="-194.34,105.66 -194.34,105.66"/>
        <lane id=":J30_0_1" index="1" speed="13.89" length="0.10" shape="-196.61,103.39 -196.61,103.39"/>
        <lane id=":J30_0_2" index="2" speed="13.89" length="0.10" shape="-198.87,101.13 -198.87,101.13"/>
    </edge>
    <edge id=":J30_3" function="internal">
        <lane id=":J30_3_0" index="0" speed="13.89" length="0.10" shape="-205.66,94.34 -205.66,94.34"/>
        <lane id=":J30_3_1" index="1" speed="13.89" length="0.10" shape="-203.39,96.61 -203.39,96.61"/>
        <lane id=":J30_3_2" index="2" speed="13.89" length="0.10" shape="-201.13,98.87 -201.13,98.87"/>
    </edge>
    <edge id=":J31_0" function="internal">
        <lane id=":J31_0_0" index="0" speed="10.40" length="20.99" shape="-284.78,219.76 -291.30,215.93 -296.67,213.91 -300.89,213.69 -303.96,215.27"/>
    </edge>
    <edge id=":J31_1" function="internal">
        <lane id=":J31_1_0" index="0" speed="13.89" length="51.72" shape="-284.78,219.76 -294.82,212.54 -305.53,203.96 -315.89,194.95 -324.87,186.44"/>
        <lane id=":J31_1_1" index="1" speed="13.89" length="51.72" shape="-283.00,217.10 -292.96,209.94 -303.51,201.50 -313.70,192.63 -322.61,184.18"/>
        <lane id=":J31_1_2" index="2" speed="13.89" length="51.72" shape="-283.00,217.10 -292.61,209.58 -302.38,200.36 -311.79,190.72 -320.35,181.91"/>
    </edge>
    <edge id=":J31_4" function="internal">
        <lane id=":J31_4_0" index="0" speed="13.89" length="51.47" shape="-283.00,217.10 -292.54,208.88 -299.35,198.77 -303.44,186.75 -304.80,172.82"/>
    </edge>
    <edge id=":J31_5" function="internal">
        <lane id=":J31_5_0" index="0" speed="13.89" length="62.96" shape="-283.00,217.10 -292.82,206.16 -292.92,193.80 -285.26,180.07 -271.81,165.02"/>
        <lane id=":J31_5_1" index="1" speed="13.89" length="56.96" shape="-281.23,214.44 -289.57,204.77 -289.19,193.58 -281.92,181.04 -269.55,167.28"/>
    </edge>
    <edge id=":J31_7" function="internal">
        <lane id=":J31_7_0" index="0" speed="11.89" length="49.03" shape="-281.23,214.44 -287.83,205.74 -283.75,197.51 -272.64,190.22 -258.13,184.36"/>
    </edge>