<?xml version="1.0" encoding="UTF-8"?>

<!-- generated on 2026-02-11T01:31:29.280767+04:00 by Eclipse SUMO netedit 1.25.0
-->

<routes xmlns:xsi="http://www.w3.org/2001/XMLSchema-instance" xsi:noNamespaceSchemaLocation="http://sumo.dlr.de/xsd/routes_file.xsd">
    <!-- Vehicles, persons and containers (sorted by depart) -->
    <flow id="f_0" begin="0.00" end="3600.00" perHour="1800.00" from="-E18" to="Node1_2_WB" via="-E17 -E16 Node2_3_WB"/>
    <flow id="f_1" begin="0.00" end="3600.00" perHour="1800.00" from="Node2_7_SB" to="E19" via="Node2_5_SB E18"/>
    <flow id="f_2" begin="0.00" end="3600.00" perHour="1800.00" from="Node1_2_EB" to="E18" via="Node2_3_EB E16 E17"/>
</routes>
