<?xml version="1.0" encoding="UTF-8"?>

<!-- generated on 2026-02-25T00:35:01.283806+04:00 by Eclipse SUMO netedit 1.25.0
<neteditConfiguration xmlns:xsi="http://www.w3.org/2001/XMLSchema-instance" xsi:noNamespaceSchemaLocation="http://sumo.dlr.de/xsd/neteditConfiguration.xsd">

    <input>
        <sumocfg-file value="C:\Users\Edawi\OneDrive\Desktop\work\Map4\RL.sumocfg"/>
        <additional-files value="C:\Users\Edawi\OneDrive\Desktop\work\Map4\RL.add.xml"/>
        <sumo-net-file value="C:\Users\Edawi\OneDrive\Desktop\work\Map4\RL.net.xml"/>
    </input>

    <output>
        <output-file value="C:\Users\Edawi\OneDrive\Desktop\work\Map4\RL.net.xml"/>
    </output>

    <processing>
        <geometry.min-radius.fix.railways value="false"/>
        <geometry.avoid-overlap value="false"/>
        <geometry.max-grade.fix value="false"/>
        <offset.disable-normalization value="true"/>
        <lefthand value="0"/>
    </processing>

    <junctions>
        <no-turnarounds value="true"/>
        <junctions.corner-detail value="5"/>
        <junctions.limit-turn-speed value="5.50"/>
        <rectangular-lane-cut value="0"/>
    </junctions>

    <pedestrian>
        <walkingareas value="0"/>
    </pedestrian>

    <netedit>
        <ignore.routeelements value="false"/>
    </netedit>

</neteditConfiguration>
-->

<net version="1.20" junctionCornerDetail="5" limitTurnSpeed="5.50" avoidOverlap="0" xmlns:xsi="http://www.w3.org/2001/XMLSchema-instance" xsi:noNamespaceSchemaLocation="http://sumo.dlr.de/xsd/net_file.xsd">

    <location netOffset="0.00,0.00" convBoundary="-100.00,-400.00,500.00,200.00" origBoundary="-10000000000.00,-10000000000.00,10000000000.00,10000000000.00" projParameter="!"/>

    <edge id=":Node1_0" function="internal">
        <lane id=":Node1_0_0" index="0" speed="6.51" length="9.03" shape="92.00,13.60 91.65,11.15 90.60,9.40 88.85,8.35 86.40,8.00"/>
    </edge>
    <edge id=":Node1_1" function="internal">
        <lane id=":Node1_1_0" index="0" speed="13.89" length="27.20" shape="92.00,13.60 92.00,-13.60"/>
        <lane id=":Node1_1_1" index="1" speed="13.89" length="27.20" shape="95.20,13.60 95.20,-13.60"/>
        <lane id=":Node1_1_2" index="2" speed="13.89" length="27.20" shape="98.40,13.60 98.40,-13.60"/>
    </edge>
    <edge id=":Node1_4" function="internal">
        <lane id=":Node1_4_0" index="0" speed="10.36" length="5.01" shape="98.40,13.60 99.11,8.64"/>
    </edge>
    <edge id=":Node1_20" function="internal">
        <lane id=":Node1_20_0" index="0" speed="10.36" length="19.50" shape="99.11,8.64 99.35,6.95 102.20,2.20 106.95,-0.65 113.60,-1.60"/>
    </edge>
    <edge id=":Node1_5" function="internal">
        <lane id=":Node1_5_0" index="0" speed="6.51" length="9.03" shape="113.60,8.00 111.15,8.35 109.40,9.40 108.35,11.15 108.00,13.60"/>
    </edge>
    <edge id=":Node1_6" function="internal">
        <lane id=":Node1_6_0" index="0" speed="13.89" length="27.20" shape="113.60,8.00 86.40,8.00"/>
        <lane id=":Node1_6_1" index="1" speed="13.89" length="27.20" shape="113.60,4.80 86.40,4.80"/>
        <lane id=":Node1_6_2" index="2" speed="13.89" length="27.20" shape="113.60,1.60 86.40,1.60"/>
    </edge>
    <edge id=":Node1_9" function="internal">
        <lane id=":Node1_9_0" index="0" speed="10.36" length="5.01" shape="113.60,1.60 108.64,0.89"/>
    </edge>
    <edge id=":Node1_21" function="internal">
        <lane id=":Node1_21_0" index="0" speed="10.36" length="19.50" shape="108.64,0.89 106.95,0.65 102.20,-2.20 99.35,-6.95 98.40,-13.60"/>
    </edge>
    <edge id=":Node1_10" function="internal">
        <lane id=":Node1_10_0" index="0" speed="6.51" length="9.03" shape="108.00,-13.60 108.35,-11.15 109.40,-9.40 111.15,-8.35 113.60,-8.00"/>
    </edge>
    <edge id=":Node1_11" function="internal">
        <lane id=":Node1_11_0" index="0" speed="13.89" length="27.20" shape="108.00,-13.60 108.00,13.60"/>
        <lane id=":Node1_11_1" index="1" speed="13.89" length="27.20" shape="104.80,-13.60 104.80,13.60"/>
        <lane id=":Node1_11_2" index="2" speed="13.89" length="27.20" shape="101.60,-13.60 101.60,13.60"/>
    </edge>
    <edge id=":Node1_14" function="internal">
        <lane id=":Node1_14_0" index="0" speed="10.36" length="5.01" shape="101.60,-13.60 100.89,-8.64"/>
    </edge>
    <edge id=":Node1_22" function="internal">
        <lane id=":Node1_22_0" index="0" speed="10.36" length="19.50" shape="100.89,-8.64 100.65,-6.95 97.80,-2.20 93.05,0.65 86.40,1.60"/>
    </edge>
    <edge id=":Node1_15" function="internal">
        <lane id=":Node1_15_0" index="0" speed="6.51" length="9.03" shape="86.40,-8.00 88.85,-8.35 90.60,-9.40 91.65,-11.15 92.00,-13.60"/>
    </edge>
    <edge id=":Node1_16" function="internal">
        <lane id=":Node1_16_0" index="0" speed="13.89" length="27.20" shape="86.40,-8.00 113.60,-8.00"/>
        <lane id=":Node1_16_1" index="1" speed="13.89" length="27.20" shape="86.40,-4.80 113.60,-4.80"/>
        <lane id=":Node1_16_2" index="2" speed="13.89" length="27.20" shape="86.40,-1.60 113.60,-1.60"/>
    </edge>
    <edge id=":Node1_19" function="internal">
        <lane id=":Node1_19_0" index="0" speed="10.36" length="5.01" shape="86.40,-1.60 91.36,-0.89"/>
    </edge>
    <edge id=":Node1_23" function="internal">
        <lane id=":Node1_23_0" index="0" speed="10.36" length="19.50" shape="91.36,-0.89 93.05,-0.65 97.80,2.20 100.65,6.95 101.60,13.60"/>
    </edge>
    <edge id=":Node10_0" function="internal">
        <lane id=":Node10_0_0" index="0" speed="6.51" length="9.03" shape="392.00,-286.40 391.65,-288.85 390.60,-290.60 388.85,-291.65 386.40,-292.00"/>
    </edge>
    <edge id=":Node10_1" function="internal">
        <lane id=":Node10_1_0" index="0" speed="13.89" length="27.20" shape="392.00,-286.40 392.00,-313.60"/>
        <lane id=":Node10_1_1" index="1" speed="13.89" length="27.20" shape="395.20,-286.40 395.20,-313.60"/>
        <lane id=":Node10_1_2" index="2" speed="13.89" length="27.20" shape="398.40,-286.40 398.40,-313.60"/>
    </edge>
    <edge id=":Node10_4" function="internal">
        <lane id=":Node10_4_0" index="0" speed="10.36" length="5.01" shape="398.40,-286.40 399.11,-291.36"/>
    </edge>
    <edge id=":Node10_20" function="internal">
        <lane id=":Node10_20_0" index="0" speed="10.36" length="19.50" shape="399.11,-291.36 399.35,-293.05 402.20,-297.80 406.95,-300.65 413.60,-301.60"/>
    </edge>
    <edge id=":Node10_5" function="internal">
        <lane id=":Node10_5_0" index="0" speed="6.51" length="9.03" shape="413.60,-292.00 411.15,-291.65 409.40,-290.60 408.35,-288.85 408.00,-286.40"/>
    </edge>
    <edge id=":Node10_6" function="internal">
        <lane id=":Node10_6_0" index="0" speed="13.89" length="27.20" shape="413.60,-292.00 386.40,-292.00"/>
        <lane id=":Node10_6_1" index="1" speed="13.89" length="27.20" shape="413.60,-295.20 386.40,-295.20"/>
        <lane id=":Node10_6_2" index="2" speed="13.89" length="27.20" shape="413.60,-298.40 386.40,-298.40"/>
    </edge>
    <edge id=":Node10_9" function="internal">
        <lane id=":Node10_9_0" index="0" speed="10.36" length="5.01" shape="413.60,-298.40 408.64,-299.11"/>
    </edge>
    <edge id=":Node10_21" function="internal">
        <lane id=":Node10_21_0" index="0" speed="10.36" length="19.50" shape="408.64,-299.11 406.95,-299.35 402.20,-302.20 399.35,-306.95 398.40,-313.60"/>
    </edge>
    <edge id=":Node10_10" function="internal">
        <lane id=":Node10_10_0" index="0" speed="6.51" length="9.03" shape="408.00,-313.60 408.35,-311.15 409.40,-309.40 411.15,-308.35 413.60,-308.00"/>
    </edge>
    <edge id=":Node10_11" function="internal">
        <lane id=":Node10_11_0" index="0" speed="13.89" length="27.20" shape="408.00,-313.60 408.00,-286.40"/>
        <lane id=":Node10_11_1" index="1" speed="13.89" length="27.20" shape="404.80,-313.60 404.80,-286.40"/>
        <lane id=":Node10_11_2" index="2" speed="13.89" length="27.20" shape="401.60,-313.60 401.60,-286.40"/>
    </edge>
    <edge id=":Node10_14" function="internal">
        <lane id=":Node10_14_0" index="0" speed="10.36" length="5.01" shape="401.60,-313.60 400.89,-308.64"/>
    </edge>
    <edge id=":Node10_22" function="internal">
        <lane id=":Node10_22_0" index="0" speed="10.36" length="19.50" shape="400.89,-308.64 400.65,-306.95 397.80,-302.20 393.05,-299.35 386.40,-298.40"/>
    </edge>
    <edge id=":Node10_15" function="internal">
        <lane id=":Node10_15_0" index="0" speed="6.51" length="9.03" shape="386.40,-308.00 388.85,-308.35 390.60,-309.40 391.65,-311.15 392.00,-313.60"/>
    </edge>
    <edge id=":Node10_16" function="internal">
        <lane id=":Node10_16_0" index="0" speed="13.89" length="27.20" shape="386.40,-308.00 413.60,-308.00"/>
        <lane id=":Node10_16_1" index="1" speed="13.89" length="27.20" shape="386.40,-304.80 413.60,-304.80"/>
        <lane id=":Node10_16_2" index="2" speed="13.89" length="27.20" shape="386.40,-301.60 413.60,-301.60"/>
    </edge>
    <edge id=":Node10_19" function="internal">
        <lane id=":Node10_19_0" index="0" speed="10.36" length="5.01" shape="386.40,-301.60 391.36,-300.89"/>
    </edge>
    <edge id=":Node10_23" function="internal">
        <lane id=":Node10_23_0" index="0" speed="10.36" length="19.50" shape="391.36,-300.89 393.05,-300.65 397.80,-297.80 400.65,-293.05 401.60,-286.40"/>
    </edge>
    <edge id=":Node11_0" function="internal">
        <lane id=":Node11_0_0" index="0" speed="6.51" length="9.03" shape="92.00,-386.40 91.65,-388.85 90.60,-390.60 88.85,-391.65 86.40,-392.00"/>
    </edge>
    <edge id=":Node11_1" function="internal">
        <lane id=":Node11_1_0" index="0" speed="11.36" length="29.67" shape="95.20,-386.40 96.35,-394.45 99.80,-400.20 105.55,-403.65 113.60,-404.80"/>
        <lane id=":Node11_1_1" index="1" speed="10.36" length="24.51" shape="98.40,-386.40 99.35,-393.05 102.20,-397.80 106.95,-400.65 113.60,-401.60"/>
    </edge>
    <edge id=":Node11_3" function="internal">
        <lane id=":Node11_3_0" index="0" speed="6.51" length="9.03" shape="113.60,-392.00 111.15,-391.65 109.40,-390.60 108.35,-388.85 108.00,-386.40"/>
    </edge>
    <edge id=":Node11_4" function="internal">
        <lane id=":Node11_4_0" index="0" speed="13.89" length="27.20" shape="113.60,-392.00 86.40,-392.00"/>
        <lane id=":Node11_4_1" index="1" speed="13.89" length="27.20" shape="113.60,-395.20 86.40,-395.20"/>
        <lane id=":Node11_4_2" index="2" speed="13.89" length="27.20" shape="113.60,-398.40 86.40,-398.40"/>
    </edge>
    <edge id=":Node11_7" function="internal">
        <lane id=":Node11_7_0" index="0" speed="13.89" length="27.20" shape="86.40,-408.00 113.60,-408.00"/>
        <lane id=":Node11_7_1" index="1" speed="13.89" length="27.20" shape="86.40,-404.80 113.60,-404.80"/>
        <lane id=":Node11_7_2" index="2" speed="13.89" length="27.20" shape="86.40,-401.60 113.60,-401.60"/>
    </edge>
    <edge id=":Node11_10" function="internal">
        <lane id=":Node11_10_0" index="0" speed="10.88" length="6.03" shape="86.40,-401.60 92.38,-400.89"/>
        <lane id=":Node11_10_1" index="1" speed="10.36" length="5.01" shape="86.40,-401.60 91.36,-400.89"/>
    </edge>
    <edge id=":Node11_12" function="internal">
        <lane id=":Node11_12_0" index="0" speed="10.88" length="21.12" shape="92.38,-400.89 94.45,-400.65 100.20,-397.80 103.65,-393.05 104.80,-386.40"/>
        <lane id=":Node11_12_1" index="0" speed="10.36" length="19.50" shape="91.36,-400.89 93.05,-400.65 97.80,-397.80 100.65,-393.05 101.60,-386.40"/>
    </edge>
    <edge id=":Node12_0" function="internal">
        <lane id=":Node12_0_0" index="0" speed="6.51" length="9.03" shape="192.00,-386.40 191.65,-388.85 190.60,-390.60 188.85,-391.65 186.40,-392.00"/>
    </edge>
    <edge id=":Node12_1" function="internal">
        <lane id=":Node12_1_0" index="0" speed="11.36" length="29.67" shape="195.20,-386.40 196.35,-394.45 199.80,-400.20 205.55,-403.65 213.60,-404.80"/>
        <lane id=":Node12_1_1" index="1" speed="10.36" length="24.51" shape="198.40,-386.40 199.35,-393.05 202.20,-397.80 206.95,-400.65 213.60,-401.60"/>
    </edge>
    <edge id=":Node12_3" function="internal">
        <lane id=":Node12_3_0" index="0" speed="6.51" length="9.03" shape="213.60,-392.00 211.15,-391.65 209.40,-390.60 208.35,-388.85 208.00,-386.40"/>
    </edge>
    <edge id=":Node12_4" function="internal">
        <lane id=":Node12_4_0" index="0" speed="13.89" length="27.20" shape="213.60,-392.00 186.40,-392.00"/>
        <lane id=":Node12_4_1" index="1" speed="13.89" length="27.20" shape="213.60,-395.20 186.40,-395.20"/>
        <lane id=":Node12_4_2" index="2" speed="13.89" length="27.20" shape="213.60,-398.40 186.40,-398.40"/>
    </edge>
    <edge id=":Node12_7" function="internal">
        <lane id=":Node12_7_0" index="0" speed="13.89" length="27.20" shape="186.40,-408.00 213.60,-408.00"/>
        <lane id=":Node12_7_1" index="1" speed="13.89" length="27.20" shape="186.40,-404.80 213.60,-404.80"/>
        <lane id=":Node12_7_2" index="2" speed="13.89" length="27.20" shape="186.40,-401.60 213.60,-401.60"/>
    </edge>
    <edge id=":Node12_10" function="internal">
        <lane id=":Node12_10_0" index="0" speed="10.88" length="6.03" shape="186.40,-401.60 192.38,-400.89"/>
        <lane id=":Node12_10_1" index="1" speed="10.36" length="5.01" shape="186.40,-401.60 191.36,-400.89"/>
    </edge>
    <edge id=":Node12_12" function="internal">
        <lane id=":Node12_12_0" index="0" speed="10.88" length="21.12" shape="192.38,-400.89 194.45,-400.65 200.20,-397.80 203.65,-393.05 204.80,-386.40"/>
        <lane id=":Node12_12_1" index="0" speed="10.36" length="19.50" shape="191.36,-400.89 193.05,-400.65 197.80,-397.80 200.65,-393.05 201.60,-386.40"/>
    </edge>
    <edge id=":Node13_0" function="internal">
        <lane id=":Node13_0_0" index="0" speed="6.51" length="9.03" shape="392.00,-386.40 391.65,-388.85 390.60,-390.60 388.85,-391.65 386.40,-392.00"/>
    </edge>
    <edge id=":Node13_1" function="internal">
        <lane id=":Node13_1_0" index="0" speed="11.36" length="29.67" shape="395.20,-386.40 396.35,-394.45 399.80,-400.20 405.55,-403.65 413.60,-404.80"/>
        <lane id=":Node13_1_1" index="1" speed="10.36" length="24.51" shape="398.40,-386.40 399.35,-393.05 402.20,-397.80 406.95,-400.65 413.60,-401.60"/>
    </edge>
    <edge id=":Node13_3" function="internal">
        <lane id=":Node13_3_0" index="0" speed="6.51" length="9.03" shape="413.60,-392.00 411.15,-391.65 409.40,-390.60 408.35,-388.85 408.00,-386.40"/>
    </edge>
    <edge id=":Node13_4" function="internal">
        <lane id=":Node13_4_0" index="0" speed="13.89" length="27.20" shape="413.60,-392.00 386.40,-392.00"/>
        <lane id=":Node13_4_1" index="1" speed="13.89" length="27.20" shape="413.60,-395.20 386.40,-395.20"/>
        <lane id=":Node13_4_2" index="2" speed="13.89" length="27.20" shape="413.60,-398.40 386.40,-398.40"/>
    </edge>
    <edge id=":Node13_7" function="internal">
        <lane id=":Node13_7_0" index="0" speed="13.89" length="27.20" shape="386.40,-408.00 413.60,-408.00"/>
        <lane id=":Node13_7_1" index="1" speed="13.89" length="27.20" shape="386.40,-404.80 413.60,-404.80"/>
        <lane id=":Node13_7_2" index="2" speed="13.89" length="27.20" shape="386.40,-401.60 413.60,-401.60"/>
    </edge>
    <edge id=":Node13_10" function="internal">
        <lane id=":Node13_10_0" index="0" speed="10.88" length="6.03" shape="386.40,-401.60 392.38,-400.89"/>
        <lane id=":Node13_10_1" index="1" speed="10.36" length="5.01" shape="386.40,-401.60 391.36,-400.89"/>
    </edge>
    <edge id=":Node13_12" function="internal">
        <lane id=":Node13_12_0" index="0" speed="10.88" length="21.12" shape="392.38,-400.89 394.45,-400.65 400.20,-397.80 403.65,-393.05 404.80,-386.40"/>
        <lane id=":Node13_12_1" index="0" speed="10.36" length="19.50" shape="391.36,-400.89 393.05,-400.65 397.80,-397.80 400.65,-393.05 401.60,-386.40"/>
    </edge>
    <edge id=":Node14_0" function="internal">
        <lane id=":Node14_0_0" index="0" speed="3.90" length="2.58" shape="492.00,-390.40 491.90,-391.10 491.60,-391.60 491.10,-391.90 490.40,-392.00"/>
        <lane id=":Node14_0_1" index="1" speed="6.08" length="7.74" shape="495.20,-390.40 494.90,-392.50 494.00,-394.00 492.50,-394.90 490.40,-395.20"/>
        <lane id=":Node14_0_2" index="2" speed="7.66" length="12.90" shape="498.40,-390.40 497.90,-393.90 496.40,-396.40 493.90,-397.90 490.40,-398.40"/>
    </edge>
    <edge id=":Node14_3" function="internal">
        <lane id=":Node14_3_0" index="0" speed="11.12" length="28.38" shape="490.40,-408.00 498.10,-406.90 503.60,-403.60 506.90,-398.10 508.00,-390.40"/>
        <lane id=":Node14_3_1" index="1" speed="10.10" length="23.22" shape="490.40,-404.80 496.70,-403.90 501.20,-401.20 503.90,-396.70 504.80,-390.40"/>
        <lane id=":Node14_3_2" index="2" speed="8.96" length="18.06" shape="490.40,-401.60 495.30,-400.90 498.80,-398.80 500.90,-395.30 501.60,-390.40"/>
    </edge>
    <edge id=":Node15_0" function="internal">
        <lane id=":Node15_0_0" index="0" speed="6.51" length="9.03" shape="492.00,-286.40 491.65,-288.85 490.60,-290.60 488.85,-291.65 486.40,-292.00"/>
    </edge>
    <edge id=":Node15_1" function="internal">
        <lane id=":Node15_1_0" index="0" speed="13.89" length="27.20" shape="492.00,-286.40 492.00,-313.60"/>
        <lane id=":Node15_1_1" index="1" speed="13.89" length="27.20" shape="495.20,-286.40 495.20,-313.60"/>
        <lane id=":Node15_1_2" index="2" speed="13.89" length="27.20" shape="498.40,-286.40 498.40,-313.60"/>
    </edge>
    <edge id=":Node15_4" function="internal">
        <lane id=":Node15_4_0" index="0" speed="13.89" length="27.20" shape="508.00,-313.60 508.00,-286.40"/>
        <lane id=":Node15_4_1" index="1" speed="13.89" length="27.20" shape="504.80,-313.60 504.80,-286.40"/>
        <lane id=":Node15_4_2" index="2" speed="13.89" length="27.20" shape="501.60,-313.60 501.60,-286.40"/>
    </edge>
    <edge id=":Node15_7" function="internal">
        <lane id=":Node15_7_0" index="0" speed="10.88" length="6.03" shape="501.60,-313.60 500.89,-307.62"/>
        <lane id=":Node15_7_1" index="1" speed="10.36" length="5.01" shape="501.60,-313.60 500.89,-308.64"/>
    </edge>
    <edge id=":Node15_12" function="internal">
        <lane id=":Node15_12_0" index="0" speed="10.88" length="21.12" shape="500.89,-307.62 500.65,-305.55 497.80,-299.80 493.05,-296.35 486.40,-295.20"/>
        <lane id=":Node15_12_1" index="0" speed="10.36" length="19.50" shape="500.89,-308.64 500.65,-306.95 497.80,-302.20 493.05,-299.35 486.40,-298.40"/>
    </edge>
    <edge id=":Node15_9" function="internal">
        <lane id=":Node15_9_0" index="0" speed="6.51" length="9.03" shape="486.40,-308.00 488.85,-308.35 490.60,-309.40 491.65,-311.15 492.00,-313.60"/>
    </edge>
    <edge id=":Node15_10" function="internal">
        <lane id=":Node15_10_0" index="0" speed="11.36" length="29.67" shape="486.40,-304.80 494.45,-303.65 500.20,-300.20 503.65,-294.45 504.80,-286.40"/>
        <lane id=":Node15_10_1" index="1" speed="10.36" length="24.51" shape="486.40,-301.60 493.05,-300.65 497.80,-297.80 500.65,-293.05 501.60,-286.40"/>
    </edge>
    <edge id=":Node16_0" function="internal">
        <lane id=":Node16_0_0" index="0" speed="6.51" length="9.03" shape="492.00,-86.40 491.65,-88.85 490.60,-90.60 488.85,-91.65 486.40,-92.00"/>
    </edge>
    <edge id=":Node16_1" function="internal">
        <lane id=":Node16_1_0" index="0" speed="13.89" length="27.20" shape="492.00,-86.40 492.00,-113.60"/>
        <lane id=":Node16_1_1" index="1" speed="13.89" length="27.20" shape="495.20,-86.40 495.20,-113.60"/>
        <lane id=":Node16_1_2" index="2" speed="13.89" length="27.20" shape="498.40,-86.40 498.40,-113.60"/>
    </edge>
    <edge id=":Node16_4" function="internal">
        <lane id=":Node16_4_0" index="0" speed="13.89" length="27.20" shape="508.00,-113.60 508.00,-86.40"/>
        <lane id=":Node16_4_1" index="1" speed="13.89" length="27.20" shape="504.80,-113.60 504.80,-86.40"/>
        <lane id=":Node16_4_2" index="2" speed="13.89" length="27.20" shape="501.60,-113.60 501.60,-86.40"/>
    </edge>
    <edge id=":Node16_7" function="internal">
        <lane id=":Node16_7_0" index="0" speed="10.88" length="6.03" shape="501.60,-113.60 500.89,-107.62"/>
        <lane id=":Node16_7_1" index="1" speed="10.36" length="5.01" shape="501.60,-113.60 500.89,-108.64"/>
    </edge>
    <edge id=":Node16_12" function="internal">
        <lane id=":Node16_12_0" index="0" speed="10.88" length="21.12" shape="500.89,-107.62 500.65,-105.55 497.80,-99.80 493.05,-96.35 486.40,-95.20"/>
        <lane id=":Node16_12_1" index="0" speed="10.36" length="19.50" shape="500.89,-108.64 500.65,-106.95 497.80,-102.20 493.05,-99.35 486.40,-98.40"/>
    </edge>
    <edge id=":Node16_9" function="internal">
        <lane id=":Node16_9_0" index="0" speed="6.51" length="9.03" shape="486.40,-108.00 488.85,-108.35 490.60,-109.40 491.65,-111.15 492.00,-113.60"/>
    </edge>
    <edge id=":Node16_10" function="internal">
        <lane id=":Node16_10_0" index="0" speed="11.36" length="29.67" shape="486.40,-104.80 494.45,-103.65 500.20,-100.20 503.65,-94.45 504.80,-86.40"/>
        <lane id=":Node16_10_1" index="1" speed="10.36" length="24.51" shape="486.40,-101.60 493.05,-100.65 497.80,-97.80 500.65,-93.05 501.60,-86.40"/>
    </edge>
    <edge id=":Node17_0" function="internal">
        <lane id=":Node17_0_0" index="0" speed="6.51" length="9.03" shape="492.00,13.60 491.65,11.15 490.60,9.40 488.85,8.35 486.40,8.00"/>
    </edge>
    <edge id=":Node17_1" function="internal">
        <lane id=":Node17_1_0" index="0" speed="13.89" length="27.20" shape="492.00,13.60 492.00,-13.60"/>
        <lane id=":Node17_1_1" index="1" speed="13.89" length="27.20" shape="495.20,13.60 495.20,-13.60"/>
        <lane id=":Node17_1_2" index="2" speed="13.89" length="27.20" shape="498.40,13.60 498.40,-13.60"/>
    </edge>
    <edge id=":Node17_4" function="internal">
        <lane id=":Node17_4_0" index="0" speed="13.89" length="27.20" shape="508.00,-13.60 508.00,13.60"/>
        <lane id=":Node17_4_1" index="1" speed="13.89" length="27.20" shape="504.80,-13.60 504.80,13.60"/>
        <lane id=":Node17_4_2" index="2" speed="13.89" length="27.20" shape="501.60,-13.60 501.60,13.60"/>
    </edge>
    <edge id=":Node17_7" function="internal">
        <lane id=":Node17_7_0" index="0" speed="10.88" length="6.03" shape="501.60,-13.60 500.89,-7.62"/>
        <lane id=":Node17_7_1" index="1" speed="10.36" length="5.01" shape="501.60,-13.60 500.89,-8.64"/>
    </edge>
    <edge id=":Node17_12" function="internal">
        <lane id=":Node17_12_0" index="0" speed="10.88" length="21.12" shape="500.89,-7.62 500.65,-5.55 497.80,0.20 493.05,3.65 486.40,4.80"/>
        <lane id=":Node17_12_1" index="0" speed="10.36" length="19.50" shape="500.89,-8.64 500.65,-6.95 497.80,-2.20 493.05,0.65 486.40,1.60"/>
    </edge>
    <edge id=":Node17_9" function="internal">
        <lane id=":Node17_9_0" index="0" speed="6.51" length="9.03" shape="486.40,-8.00 488.85,-8.35 490.60,-9.40 491.65,-11.15 492.00,-13.60"/>
    </edge>
    <edge id=":Node17_10" function="internal">
        <lane id=":Node17_10_0" index="0" speed="11.36" length="29.67" shape="486.40,-4.80 494.45,-3.65 500.20,-0.20 503.65,5.55 504.80,13.60"/>
        <lane id=":Node17_10_1" index="1" speed="10.36" length="24.51" shape="486.40,-1.60 493.05,-0.65 497.80,2.20 500.65,6.95 501.60,13.60"/>
    </edge>
    <edge id=":Node18_0" function="internal">
        <lane id=":Node18_0_0" index="0" speed="11.12" length="28.38" shape="508.00,190.40 506.90,198.10 503.60,203.60 498.10,206.90 490.40,208.00"/>
        <lane id=":Node18_0_1" index="1" speed="10.10" length="23.22" shape="504.80,190.40 503.90,196.70 501.20,201.20 496.70,203.90 490.40,204.80"/>
        <lane id=":Node18_0_2" index="2" speed="8.96" length="18.06" shape="501.60,190.40 500.90,195.30 498.80,198.80 495.30,200.90 490.40,201.60"/>
    </edge>
    <edge id=":Node18_3" function="internal">
        <lane id=":Node18_3_0" index="0" speed="3.90" length="2.58" shape="490.40,192.00 491.10,191.90 491.60,191.60 491.90,191.10 492.00,190.40"/>
        <lane id=":Node18_3_1" index="1" speed="6.08" length="7.74" shape="490.40,195.20 492.50,194.90 494.00,194.00 494.90,192.50 495.20,190.40"/>
        <lane id=":Node18_3_2" index="2" speed="7.66" length="12.90" shape="490.40,198.40 493.90,197.90 496.40,196.40 497.90,193.90 498.40,190.40"/>
    </edge>
    <edge id=":Node19_0" function="internal">
        <lane id=":Node19_0_0" index="0" speed="13.89" length="27.20" shape="413.60,208.00 386.40,208.00"/>
        <lane id=":Node19_0_1" index="1" speed="13.89" length="27.20" shape="413.60,204.80 386.40,204.80"/>
        <lane id=":Node19_0_2" index="2" speed="13.89" length="27.20" shape="413.60,201.60 386.40,201.60"/>
    </edge>
    <edge id=":Node19_3" function="internal">
        <lane id=":Node19_3_0" index="0" speed="10.88" length="6.03" shape="413.60,201.60 407.62,200.89"/>
        <lane id=":Node19_3_1" index="1" speed="10.36" length="5.01" shape="413.60,201.60 408.64,200.89"/>
    </edge>
    <edge id=":Node19_12" function="internal">
        <lane id=":Node19_12_0" index="0" speed="10.88" length="21.12" shape="407.62,200.89 405.55,200.65 399.80,197.80 396.35,193.05 395.20,186.40"/>
        <lane id=":Node19_12_1" index="0" speed="10.36" length="19.50" shape="408.64,200.89 406.95,200.65 402.20,197.80 399.35,193.05 398.40,186.40"/>
    </edge>
    <edge id=":Node19_5" function="internal">
        <lane id=":Node19_5_0" index="0" speed="6.51" length="9.03" shape="408.00,186.40 408.35,188.85 409.40,190.60 411.15,191.65 413.60,192.00"/>
    </edge>
    <edge id=":Node19_6" function="internal">
        <lane id=":Node19_6_0" index="0" speed="11.36" length="29.67" shape="404.80,186.40 403.65,194.45 400.20,200.20 394.45,203.65 386.40,204.80"/>
        <lane id=":Node19_6_1" index="1" speed="10.36" length="24.51" shape="401.60,186.40 400.65,193.05 397.80,197.80 393.05,200.65 386.40,201.60"/>
    </edge>
    <edge id=":Node19_8" function="internal">
        <lane id=":Node19_8_0" index="0" speed="6.51" length="9.03" shape="386.40,192.00 388.85,191.65 390.60,190.60 391.65,188.85 392.00,186.40"/>
    </edge>
    <edge id=":Node19_9" function="internal">
        <lane id=":Node19_9_0" index="0" speed="13.89" length="27.20" shape="386.40,192.00 413.60,192.00"/>
        <lane id=":Node19_9_1" index="1" speed="13.89" length="27.20" shape="386.40,195.20 413.60,195.20"/>
        <lane id=":Node19_9_2" index="2" speed="13.89" length="27.20" shape="386.40,198.40 413.60,198.40"/>
    </edge>
    <edge id=":Node2_0" function="internal">
        <lane id=":Node2_0_0" index="0" speed="6.51" length="9.03" shape="192.00,13.60 191.65,11.15 190.60,9.40 188.85,8.35 186.40,8.00"/>
    </edge>
    <edge id=":Node2_1" function="internal">
        <lane id=":Node2_1_0" index="0" speed="13.89" length="27.20" shape="192.00,13.60 192.00,-13.60"/>
        <lane id=":Node2_1_1" index="1" speed="13.89" length="27.20" shape="195.20,13.60 195.20,-13.60"/>
        <lane id=":Node2_1_2" index="2" speed="13.89" length="27.20" shape="198.40,13.60 198.40,-13.60"/>
    </edge>
    <edge id=":Node2_4" function="internal">
        <lane id=":Node2_4_0" index="0" speed="10.36" length="5.01" shape="198.40,13.60 199.11,8.64"/>
    </edge>
    <edge id=":Node2_20" function="internal">
        <lane id=":Node2_20_0" index="0" speed="10.36" length="19.50" shape="199.11,8.64 199.35,6.95 202.20,2.20 206.95,-0.65 213.60,-1.60"/>
    </edge>
    <edge id=":Node2_5" function="internal">
        <lane id=":Node2_5_0" index="0" speed="6.51" length="9.03" shape="213.60,8.00 211.15,8.35 209.40,9.40 208.35,11.15 208.00,13.60"/>
    </edge>
    <edge id=":Node2_6" function="internal">
        <lane id=":Node2_6_0" index="0" speed="13.89" length="27.20" shape="213.60,8.00 186.40,8.00"/>
        <lane id=":Node2_6_1" index="1" speed="13.89" length="27.20" shape="213.60,4.80 186.40,4.80"/>
        <lane id=":Node2_6_2" index="2" speed="13.89" length="27.20" shape="213.60,1.60 186.40,1.60"/>
    </edge>
    <edge id=":Node2_9" function="internal">
        <lane id=":Node2_9_0" index="0" speed="10.36" length="5.01" shape="213.60,1.60 208.64,0.89"/>
    </edge>
    <edge id=":Node2_21" function="internal">
        <lane id=":Node2_21_0" index="0" speed="10.36" length="19.50" shape="208.64,0.89 206.95,0.65 202.20,-2.20 199.35,-6.95 198.40,-13.60"/>
    </edge>
    <edge id=":Node2_10" function="internal">
        <lane id=":Node2_10_0" index="0" speed="6.51" length="9.03" shape="208.00,-13.60 208.35,-11.15 209.40,-9.40 211.15,-8.35 213.60,-8.00"/>
    </edge>
    <edge id=":Node2_11" function="internal">
        <lane id=":Node2_11_0" index="0" speed="13.89" length="27.20" shape="208.00,-13.60 208.00,13.60"/>
        <lane id=":Node2_11_1" index="1" speed="13.89" length="27.20" shape="204.80,-13.60 204.80,13.60"/>
        <lane id=":Node2_11_2" index="2" speed="13.89" length="27.20" shape="201.60,-13.60 201.60,13.60"/>
    </edge>
    <edge id=":Node2_14" function="internal">
        <lane id=":Node2_14_0" index="0" speed="10.36" length="5.01" shape="201.60,-13.60 200.89,-8.64"/>
    </edge>
    <edge id=":Node2_22" function="internal">
        <lane id=":Node2_22_0" index="0" speed="10.36" length="19.50" shape="200.89,-8.64 200.65,-6.95 197.80,-2.20 193.05,0.65 186.40,1.60"/>
    </edge>
    <edge id=":Node2_15" function="internal">
        <lane id=":Node2_15_0" index="0" speed="6.51" length="9.03" shape="186.40,-8.00 188.85,-8.35 190.60,-9.40 191.65,-11.15 192.00,-13.60"/>
    </edge>
    <edge id=":Node2_16" function="internal">
        <lane id=":Node2_16_0" index="0" speed="13.89" length="27.20" shape="186.40,-8.00 213.60,-8.00"/>