<?xml version="1.0" encoding="UTF-8"?>

<!-- generated on 2026-02-24T14:50:05.619294+04:00 by Eclipse SUMO netedit 1.25.0
-->

<routes xmlns:xsi="http://www.w3.org/2001/XMLSchema-instance" xsi:noNamespaceSchemaLocation="http://sumo.dlr.de/xsd/routes_file.xsd">
    <!-- Vehicles, persons and containers (sorted by depart) -->
    <flow id="f_0" begin="0.00" end="3600.00" perHour="1800.00" from="E38" to="Node4_5_WB" via="E39 -E26 Node5_6_WB"/>
    <flow id="f_1" begin="0.00" end="3600.00" perHour="1800.00" from="Node2_5_SB" to="-E18" via="Node5_9_SB -E38"/>
    <flow id="f_2" begin="0.00" end="3600.00" perHour="1800.00" from="Node4_5_EB" to="-E38" via="Node5_6_EB E26 -E39"/>
</routes>
