<?xml version="1.0" encoding="UTF-8"?>

<!-- generated on 2026-02-25T00:35:01.892311+04:00 by Eclipse SUMO sumo 1.25.0
-->

<sumoConfiguration xmlns:xsi="http://www.w3.org/2001/XMLSchema-instance" xsi:noNamespaceSchemaLocation="http://sumo.dlr.de/xsd/sumoConfiguration.xsd">

    <input>
        <net-file value="RL.net.xml"/>
        <route-files value="random2.rou.xml"/>
        <additional-files value="RL.add.xml"/>
    </input>

</sumoConfiguration>
