<?xml version="1.0" encoding="UTF-8"?>

<!-- generated on 2026-02-26 01:19:56.718424 by Eclipse SUMO randomTrips.py v1_25_0+0000-ac6c5a6752d
<configuration>
    <net-file value="C:\Users\Edawi\Sumo\2026-02-25-08-46-44\osm.net.xml.gz"/>
    <output-trip-file value="C:\Users\Edawi\OneDrive\Desktop\work\Map5\random.trips.xml"/>
    <route-file value="C:\Users\Edawi\OneDrive\Desktop\work\Map5\random2.rou.xml"/>
    <vehicle-class value="passenger"/>
    <random value="True"/>
    <end value="990.0"/>
    <period value="0.4"/>
    <poisson value="True"/>
</configuration>
-->

<!-- generated on 2026-02-26T01:19:56.463353+04:00 by Eclipse SUMO duarouter 1.25.0
<duarouterConfiguration xmlns:xsi="http://www.w3.org/2001/XMLSchema-instance" xsi:noNamespaceSchemaLocation="http://sumo.dlr.de/xsd/duarouterConfiguration.xsd">

    <input>
        <net-file value="C:\Users\Edawi\Sumo\2026-02-25-08-46-44\osm.net.xml.gz"/>
        <route-files value="C:\Users\Edawi\OneDrive\Desktop\work\Map5\random.trips.xml"/>
    </input>

    <output>
        <output-file value="C:\Users\Edawi\OneDrive\Desktop\work\Map5\random2.rou.xml"/>
        <alternatives-output value="NUL"/>
    </output>

    <time>
        <begin value="0.0"/>
        <end value="990.0"/>
    </time>

    <report>
        <no-warnings value="true"/>
        <ignore-errors value="true"/>
        <no-step-log value="true"/>
    </report>

</duarouterConfiguration>
-->

<routes xmlns:xsi="http://www.w3.org/2001/XMLSchema-instance" xsi:noNamespaceSchemaLocation="http://sumo.dlr.de/xsd/routes_file.xsd">
    <vType id="passenger" vClass="passenger"/>
    <vehicle id="0" type="passenger" depart="0.00">
        <route edges="-E17 -E7 88652995#0 E6 -88652935#7 -88652935#6 499345240 88652927#5 88652927#6 88652927#7 88652927#8 88652927#1 499345246 -88652908#8 Node5_1_NB E23"/>
    </vehicle>
    <vehicle id="1" type="passenger" depart="0.40">
        <route edges="-88652908#8 Node1_2_EB -88653190#2 499329577 88653121#1 88653121#2 88653121#3 499329570 88653122#0 Node9_4_SB -E2 E1 611320511"/>
    </vehicle>
    <vehicle id="2" type="passenger" depart="0.80">
        <route edges="-E12 -E11 -E9 E17 -E18 -88652883#12 -88652883#11 88652908#0 88652908#1 E23 E25"/>
    </vehicle>
    <vehicle id="3" type="passenger" depart="1.20">
        <route edges="-88652908#8 Node5_1_NB -88652908#2 -88652908#0 88652883#10 88652883#12 E18 -E17 E9 -E10 -1094495155 -88653125#1 -E12 -E11"/>
    </vehicle>
    <vehicle id="4" type="passenger" depart="1.60">
        <route edges="-E25 Node6_2_SB Node1_2_WB Node5_1_NB"/>
    </vehicle>
    <vehicle id="5" type="passenger" depart="2.00">
        <route edges="E13 88652896#0 -88652896#5 -E13 E12 88653125#0 -499157202#5 88653155 -88652940#5 -88652940#2 12875760#0 -88652883#3 88652913#1"/>
    </vehicle>
    <vehicle id="6" type="passenger" depart="2.40">
        <route edges="497328438 -87355168#0 E0 E2 Node9_4_NB -88653122#1 499329568 88653121#5 88653121#6 88653121#7 499329582 88653190#0 Node6_2_NB E25 -E27 E28"/>
    </vehicle>
    <vehicle id="7" type="passenger" depart="2.80">
        <route edges="-497324183#8 -497324183#6 Node7_3_NB -497324183#0 -88653197#4 88653087#0 -88652913#1 88652883#0 -12875760#1 88652940#2 -88652940#2"/>
    </vehicle>
    <vehicle id="8" type="passenger" depart="3.20">
        <route edges="E27 -E25 -E23 -88652908#2 -88652908#0 88652883#10 88652883#12 E18 -E17 E9 -E10"/>
    </vehicle>
    <vehicle id="9" type="passenger" depart="3.60">
        <route edges="88652940#0 12875760#0 -12875760#1"/>
    </vehicle>
    <vehicle id="10" type="passenger" depart="4.00">
        <route edges="-88652896#5 -E13 -E11 -E9 E17 -E18 88653069#1 -88652935#7 -88652935#6 499345240 88652927#5 88652927#6 88652927#7 499345244 -88653179#7 499329572 88653121#3 88653121#4 88653121#5 499329562 Node8_3_EB 497324183#5"/>
    </vehicle>
    <vehicle id="11" type="passenger" depart="4.40">
        <route edges="Node1_2_EB -88653190#2 499329577 88653121#1 88653121#2 88653121#3 499329570 88653122#0 Node9_4_SB Node10_4_WB -88653142#2"/>
    </vehicle>
    <vehicle id="12" type="passenger" depart="4.80">
        <route edges="499345240 88652927#5 88652927#6 88652927#7 88652927#8 88652927#1 499345246 -88652908#8 Node5_1_NB -88652908#2 -88652908#0 -88652883#9 -88652883#6 -12875760#1 88652940#2 88652940#3 E16"/>
    </vehicle>
    <vehicle id="13" type="passenger" depart="5.20">
        <route edges="-E37 Node9_4_NB 497325350#0 497324183#7 -497324183#8"/>
    </vehicle>
    <vehicle id="14" type="passenger" depart="5.60">
        <route edges="-88652940#2 12875760#0 -88652883#3 88652913#1 -E32 -E30 497324182#0 497324182#1 497324183#5"/>
    </vehicle>
    <vehicle id="15" type="passenger" depart="6.00">
        <route edges="-E25 -E23"/>
    </vehicle>
    <vehicle id="16" type="passenger" depart="6.40">
        <route edges="499345240 88652927#5 499345243 88653142#0 -88653142#0 499345242"/>
    </vehicle>
    <vehicle id="17" type="passenger" depart="6.80">
        <route edges="499329577 88653121#1 88653121#2 88653121#3 88653121#4 88653121#5 88653121#6 88653121#7 499329582 88653190#0 Node6_2_NB E25 -E27 E28 -88652883#6 -12875760#1 88652940#2 88652940#3 -88653155 88653155"/>
    </vehicle>
    <vehicle id="18" type="passenger" depart="7.20">
        <route edges="88653160#4 88653160#7 88653160#10 -88652883#11 -88652883#9 -88652883#6 -88652883#3"/>
    </vehicle>
    <vehicle id="19" type="passenger" depart="7.60">
        <route edges="497324182#0 497324182#1 497324183#5 497324183#7 E36 -E37 Node10_4_WB 497324181#1 497324181#1-AddedOffRampEdge 497324181#8"/>
    </vehicle>
    <vehicle id="20" type="passenger" depart="8.00">
        <route edges="-88652995#3 E7 E17 -E18 -88652883#12"/>
    </vehicle>
    <vehicle id="21" type="passenger" depart="8.40">
        <route edges="-12875760#1 12875760#0 88652883#4 88652883#7 88652908#0 88652908#1 Node5_1_SB 88652908#7 499345247 88652927#3 88652927#4 88652927#5 499345243 88653142#0"/>
    </vehicle>
    <vehicle id="22" type="passenger" depart="8.80">
        <route edges="-497324183#6 Node8_3_WB 499329565 88653121#7 88653121#0 88653121#1 88653121#2 88653121#3 499329570 88653122#0 497325351#0 -88653142#0 499345242"/>
    </vehicle>
    <vehicle id="23" type="passenger" depart="9.20">
        <route edges="-E26 88652908#1 Node5_1_SB 88652908#7 499345247 88652927#3 88652927#4 88652927#5 499345243 88653142#0 88653142#1 497324181#1 497324181#1-AddedOffRampEdge 497324181#8"/>
    </vehicle>
    <vehicle id="24" type="passenger" depart="9.60">
        <route edges="88653125#0 499157202#6 E10 -E9 E17 -E16"/>
    </vehicle>
    <vehicle id="25" type="passenger" depart="10.00">
        <route edges="Node0_1_WB 88653160#7 E22 -88652908#2 -88652908#0"/>
    </vehicle>
    <vehicle id="26" type="passenger" depart="10.40">
        <route edges="88653197#4 497324183#0 -E20 Node1_2_WB Node5_1_NB -88652908#2"/>
    </vehicle>
    <vehicle id="27" type="passenger" depart="10.80">
        <route edges="-E9 E17 -E18 -88652883#12 -88652883#11 88652908#0 88652908#1 -E22"/>
    </vehicle>
    <vehicle id="28" type="passenger" depart="11.20">
        <route edges="Node7_3_NB -497324183#0 -88653197#4 -88653197#3 -E27 E28 88652883#7 88652883#10 88652883#12 E18 -E17 -E7 88652995#0 E6"/>
    </vehicle>
    <vehicle id="29" type="passenger" depart="11.60">
        <route edges="-88653160#3 88653102#0 88653142#1 Node10_4_EB E37 -E36 -497324183#8 -497324183#6"/>
    </vehicle>
    <vehicle id="30" type="passenger" depart="12.00">
        <route edges="-E5 88653102#0 -88653142#0 499345242 88652927#7 499345244 -88653179#7 499329572 88653121#3 88653121#4 88653121#5 499329562 Node8_3_EB 497324183#5 497324183#7 E36"/>
    </vehicle>
    <vehicle id="31" type="passenger" depart="12.40">
        <route edges="499329582 88653190#0 Node6_2_NB -E23 Node5_1_SB"/>
    </vehicle>
    <vehicle id="32" type="passenger" depart="12.80">
        <route edges="499157202#1 499157202#2 499157202#6 E10 -E9 -E7 88652995#0 E6"/>
    </vehicle>
    <vehicle id="33" type="passenger" depart="13.20">
        <route edges="Node9_4_SB Node9_4_NB -88653122#1 499329568 88653121#5 88653121#6 88653121#7 499329582 88653190#0 -88653190#2"/>
    </vehicle>
    <vehicle id="34" type="passenger" depart="13.60">
        <route edges="-88653160#9 -88653160#6 -88652935#6 499345240 88652927#5 88652927#6 88652927#7 499345244 -88653179#7 499329572"/>
    </vehicle>
    <vehicle id="35" type="passenger" depart="14.00">
        <route edges="Node6_2_SB -88653190#2 499329577 88653121#1 88653121#2 88653121#3 88653121#4 88653121#5 88653121#6 88653121#7 499329582 88653190#0 Node6_2_NB E25 -E27 E28 -88652883#6"/>
    </vehicle>
    <vehicle id="36" type="passenger" depart="14.40">
        <route edges="88653087#0 -E32 -E30 497324182#0 497324182#1 497324183#5 497324183#7 E36 -E37 Node10_4_WB 497324181#1 497324181#1-AddedOffRampEdge"/>
    </vehicle>
    <vehicle id="37" type="passenger" depart="14.80">
        <route edges="497325351#0 -88653142#0 499345242 88652927#7 88652927#8 88652927#1 88652927#2 88652927#3 499345241 88652935#0"/>
    </vehicle>
    <vehicle id="38" type="passenger" depart="15.20">
        <route edges="-E25 -E23 -88652908#2 -88652908#0 88652883#10 88652883#12 E18 -E17 E9 E11 E12 88653125#0 499157202#6 E10 -E9"/>
    </vehicle>
    <vehicle id="39" type="passenger" depart="15.60">
        <route edges="E37 -E36 -497324183#8 -497324183#6 Node7_3_NB -497324183#0 -88653197#4 88653087#0 -88652913#1 88652883#0 -12875760#1 88652940#2 88652940#3 -88653155"/>
    </vehicle>
    <vehicle id="40" type="passenger" depart="16.00">
        <route edges="499345240 88652927#5 88652927#6 88652927#7 88652927#8 88652927#1 88652927#2 88652927#3 499345241 88652935#0 -88653160#3"/>
    </vehicle>
    <vehicle id="41" type="passenger" depart="16.40">
        <route edges="-E7 88652995#0 E6 -88652935#7 -88652935#6 499345240 88652927#5 499345243 88653142#0 88653142#1 Node10_4_EB -E2 E1 611320511"/>
    </vehicle>
    <vehicle id="42" type="passenger" depart="16.80">
        <route edges="88652913#1 -E32 -E30 497324182#0 497324182#1 Node8_3_WB 499329565 88653121#7 499329582"/>
    </vehicle>
    <vehicle id="43" type="passenger" depart="17.20">
        <route edges="-88653179#7 499329572 88653121#3 88653121#4 88653121#5 499329562 Node8_3_EB Node7_3_NB -497324183#0 -88653197#4"/>
    </vehicle>
    <vehicle id="44" type="passenger" depart="17.60">
        <route edges="-88652935#6 499345240 88652927#5 88652927#6 88652927#7 499345244 -88653179#7 499329572 88653121#3 88653121#4 88653121#5 88653121#6 88653121#7 499329582 88653190#0 Node6_2_NB E25 -E27"/>
    </vehicle>
    <vehicle id="45" type="passenger" depart="18.00">
        <route edges="E9 -E10 -1094495155 -499157202#5 88653155 -88652940#5 -88652940#2 12875760#0 -88652883#3 88652913#1 -E32 -E31 -497324183#0 -88653197#4 88653087#0"/>
    </vehicle>
    <vehicle id="46" type="passenger" depart="18.40">
        <route edges="-E30 497324182#0 497324182#1 Node8_3_WB 499329565 88653121#7 88653121#0 88653121#1 499329575 88653179#0 499345245 88652927#1 88652927#2 88652927#3 499345241 88652935#0 88652935#7 -88653069#2 E18 -E17 E9 E11"/>
    </vehicle>
    <vehicle id="47" type="passenger" depart="18.80">
        <route edges="-88653160#9 Node0_1_EB Node1_2_EB Node6_2_NB E25 -E27 E28"/>
    </vehicle>
    <vehicle id="48" type="passenger" depart="19.20">
        <route edges="88653122#0 497325350#0 -497324183#6 Node8_3_WB"/>
    </vehicle>
    <vehicle id="49" type="passenger" depart="19.60">
        <route edges="-499157202#5 88653155 -88652940#5 -88652940#2 12875760#0 88652883#4 -E28 E27 -E25 Node6_2_SB -88653190#2 499329577 88653121#1 499329575 88653179#0 499345245 88652927#1 499345246"/>
    </vehicle>
    <vehicle id="50" type="passenger" depart="20.00">
        <route edges="Node0_1_WB -88653160#6 -88652935#6 499345240 88652927#5 88652927#6 88652927#7 499345244 -88653179#7 499329572 88653121#3 88653121#4 88653121#5 499329562 Node8_3_EB 497324183#5 497324183#7 E36 -E37"/>
    </vehicle>
    <vehicle id="51" type="passenger" depart="20.40">
        <route edges="-E2 E3 E4 -E35 -E36 -497324183#8 -497324183#6 -497324182#3 -497324182#0 E30 -E31"/>
    </vehicle>
    <vehicle id="52" type="passenger" depart="20.80">
        <route edges="-1094495155 -499157202#5 88653155 -88652940#5 -88652940#2 12875760#0 -88652883#3 88652913#1 -E32 -E31 -497324183#0 -88653197#4"/>
    </vehicle>
    <vehicle id="53" type="passenger" depart="21.20">
        <route edges="499345244 -88653179#7 499329572 88653121#3 88653121#4 88653121#5 88653121#6 88653121#7 88653121#0 88653121#1 499329575 88653179#0 499345245 88652927#1 499345246 -88652908#8 Node1_2_EB"/>
    </vehicle>
    <vehicle id="54" type="passenger" depart="21.60">
        <route edges="497324183#0 -E20 Node1_2_WB 88652908#7 499345247 88652927#3 499345241 88652935#0"/>
    </vehicle>
    <vehicle id="55" type="passenger" depart="22.00">
        <route edges="499329562 499329565 88653121#7 88653121#0 88653121#1 88653121#2 88653121#3 499329570 88653122#0 497325351#0 -88653142#0"/>
    </vehicle>
    <vehicle id="56" type="passenger" depart="22.40">
        <route edges="88653155 -88652940#5 -88652940#2 12875760#0 -88652883#3 88652913#1 -E32 -E30 497324182#0 497324182#1 497324183#5 497325350#4"/>
    </vehicle>
    <vehicle id="57" type="passenger" depart="22.80">
        <route edges="88653160#10 88652883#12 88653069#1 -E6 -88652995#3 E7"/>
    </vehicle>
    <vehicle id="58" type="passenger" depart="23.20">
        <route edges="E28 88652883#7 88652908#0 88652908#1 Node5_1_SB 88652908#7 499345247 88652927#3 88652927#4 88652927#5 499345243 88653142#0 88653142#1 497324181#1 497324181#1-AddedOffRampEdge 87355090#0 500773915#0 87355168#0"/>
    </vehicle>
    <vehicle id="59" type="passenger" depart="23.60">
        <route edges="E31 -E30 497324182#0 497324182#1 497324183#5 -497324183#6"/>
    </vehicle>
    <vehicle id="60" type="passenger" depart="24.00">
        <route edges="499329562 499329565 88653121#7 88653121#0 88653121#1 88653121#2 88653121#3 499329570 88653122#0 Node9_4_SB Node10_4_WB 497324181#1"/>
    </vehicle>
    <vehicle id="61" type="passenger" depart="24.40">
        <route edges="-88652883#9 -E28 -E26 88652908#1 Node5_1_SB 88652908#7 499345247 88652927#3 88652927#4 88652927#5 499345243 88653142#0 88653142#1 497324181#1 497324181#1-AddedOffRampEdge 87355090#0"/>
    </vehicle>
    <vehicle id="62" type="passenger" depart="24.80">
        <route edges="-88653125#1 88653125#0 -499157202#5 -499157202#1"/>
    </vehicle>
    <vehicle id="63" type="passenger" depart="25.20">
        <route edges="E26 E28 -88652883#6 -12875760#1 88652940#2 88652940#3 -88653155 499157202#2 -88653125#1"/>
    </vehicle>
    <vehicle id="64" type="passenger" depart="25.60">
        <route edges="E2 Node10_4_WB 497324181#1 497324181#1-AddedOffRampEdge 497324181#8 -E5 88653160#2 -88652935#6"/>
    </vehicle>
    <vehicle id="65" type="passenger" depart="26.00">
        <route edges="-E16 -88652940#5 -88652940#2 12875760#0 88652883#4 88652883#7 88652908#0 88652908#1 Node5_1_SB 88652908#7 499345247 88652927#3 88652927#4 88652927#5 499345243 88653142#0 88653142#1 497324181#1 497324181#1-AddedOffRampEdge"/>
    </vehicle>
    <vehicle id="66" type="passenger" depart="26.40">
        <route edges="Node6_2_SB -88653190#2 499329577 88653121#1 499329575 88653179#0 499345245 88652927#1 88652927#2 88652927#3 499345241 88652935#0 88652935#7 -E6 -88652995#3 88652995#0 E6"/>
    </vehicle>
    <vehicle id="67" type="passenger" depart="26.80">
        <route edges="-87355168#0 E0 E2 Node10_4_WB 497324181#1 497324181#1-AddedOffRampEdge 497324181#8 -E5 88653160#2 88653160#4 88653160#7"/>
    </vehicle>
    <vehicle id="68" type="passenger" depart="27.20">
        <route edges="-88653190#2 499329577 88653121#1 499329575 88653179#0 499345245 88652927#1 88652927#2 88652927#3 88652927#4 88652927#5 88652927#6 88652927#7 499345244"/>
    </vehicle>
    <vehicle id="69" type="passenger" depart="27.60">
        <route edges="-E36 -497324183#8 497324183#7 E36 -E37 Node10_4_WB 497324181#1 497324181#1-AddedOffRampEdge 497324181#8"/>
    </vehicle>
    <vehicle id="70" type="passenger" depart="28.00">
        <route edges="-E5 88653160#2 88652935#7 -88653069#2 88653069#1 -88652935#7"/>
    </vehicle>
    <vehicle id="71" type="passenger" depart="28.40">
        <route edges="-88652940#2 12875760#0 88652883#4 -E28 E27 -E25 Node6_2_SB -88653190#2 499329577 88653121#1 88653121#2 88653121#3 499329570 88653122#0 Node9_4_SB -E2 E1 611320511"/>
    </vehicle>
    <vehicle id="72" type="passenger" depart="28.80">
        <route edges="Node5_1_SB Node1_2_EB Node6_2_NB E25 -E27 -E26"/>
    </vehicle>
    <vehicle id="73" type="passenger" depart="29.20">
        <route edges="E10 E11 E12 88653125#0 -499157202#5 88653155 -88652940#5 -88652940#2 12875760#0 -12875760#1"/>
    </vehicle>
    <vehicle id="74" type="passenger" depart="29.60">
        <route edges="88652883#12 E18 -E17 E9 E11 E13 88652896#0"/>
    </vehicle>
    <vehicle id="75" type="passenger" depart="30.00">
        <route edges="88653087#0 -E32 -E31 -E20 Node1_2_WB 88652908#7 499345247 88652927#3 499345241 88652935#0 88652935#7 -E6 -88652995#3 E7"/>
    </vehicle>
    <vehicle id="76" type="passenger" depart="30.40">
        <route edges="-E13 -E11 -E9 -E7 88652995#0 -88652995#3 E7 E9"/>
    </vehicle>
    <vehicle id="77" type="passenger" depart="30.80">
        <route edges="-E37 Node9_4_NB 497325350#0 -497324183#6 Node7_3_NB -497324183#0"/>
    </vehicle>
    <vehicle id="78" type="passenger" depart="31.20">
        <route edges="499329575 88653179#0 499345245 88652927#1 499345246 -88652908#8 Node1_2_EB E20 -497324183#0 -88653197#4 88653087#0"/>
    </vehicle>
    <vehicle id="79" type="passenger" depart="31.60">
        <route edges="497325351#0 88653142#1 Node10_4_EB E37"/>
    </vehicle>
    <vehicle id="80" type="passenger" depart="32.00">
        <route edges="499329568 88653121#5 88653121#6 88653121#7 499329582 88653190#0 Node6_2_NB E25 -E27 E28 88652883#7 88652883#10 -88653160#10"/>
    </vehicle>
    <vehicle id="81" type="passenger" depart="32.40">
        <route edges="Node0_1_EB Node1_2_EB E20 Node7_3_SB 497324183#5 497324183#7 E36"/>
    </vehicle>
    <vehicle id="82" type="passenger" depart="32.80">
        <route edges="E22 Node5_1_SB Node1_2_EB E20 -497324183#0 -88653197#4 -88653197#3"/>
    </vehicle>
    <vehicle id="83" type="passenger" depart="33.20">
        <route edges="Node5_1_SB Node1_2_EB -88653190#2 499329577 88653121#1 499329575 88653179#0 499345245"/>
    </vehicle>
    <vehicle id="84" type="passenger" depart="33.60">
        <route edges="-E11 -E10 -1094495155 -499157202#5 -499157202#1"/>
    </vehicle>
    <vehicle id="85" type="passenger" depart="34.00">
        <route edges="Node9_4_SB -E2 -E0 87355168#0"/>
    </vehicle>
    <vehicle id="86" type="passenger" depart="34.40">
        <route edges="-E18 88653069#1 -88652935#7 -88652935#6 499345240 88652927#5 88652927#6 88652927#7 499345244 -88653179#7 499329572 88653121#3 499329570"/>
    </vehicle>
    <vehicle id="87" type="passenger" depart="34.80">
        <route edges="88653069#1 -88652935#7 -88652935#6 499345240 88652927#5 499345243 88653142#0 88653142#1 Node10_4_EB E37 E35"/>
    </vehicle>
    <vehicle id="88" type="passenger" depart="35.20">
        <route edges="88653014#0 497324182#1"/>
    </vehicle>
    <vehicle id="89" type="passenger" depart="35.60">
        <route edges="Node7_3_NB -E20"/>
    </vehicle>
    <vehicle id="90" type="passenger" depart="36.00">
        <route edges="Node8_3_EB -497324182#3 -497324182#0 E30 E32 -88652913#1"/>
    </vehicle>
    <vehicle id="91" type="passenger" depart="36.40">
        <route edges="-497324182#0 E30 -E31 -E20 -88653190#2 499329577 88653121#1 88653121#2 88653121#3 499329570 88653122#0 497325351#0"/>
    </vehicle>
    <vehicle id="92" type="passenger" depart="36.80">
        <route edges="88653160#10 -88652883#11 88652908#0 E26"/>
    </vehicle>
    <vehicle id="93" type="passenger" depart="37.20">
        <route edges="499329577 88653121#1 88653121#2 88653121#3 88653121#4 88653121#5 88653121#6 88653121#7 499329582 88653190#0 -88653190#2"/>
    </vehicle>
    <vehicle id="94" type="passenger" depart="37.60">
        <route edges="-E6 -88652995#3 E7 E9 -E10 -1094495155 -88653125#1 -E12 -E11"/>
    </vehicle>
    <vehicle id="95" type="passenger" depart="38.00">
        <route edges="-88652883#6 -12875760#1 88652940#2 88652940#3 -88653155 -499157202#1"/>
    </vehicle>
    <vehicle id="96" type="passenger" depart="38.40">
        <route edges="-E13 E12 88653125#0 -499157202#5 88653155 -88652940#5 -88652940#2 12875760#0 -12875760#1"/>
    </vehicle>
    <vehicle id="97" type="passenger" depart="38.80">
        <route edges="-88653160#9 -88653160#6 88652935#7 -88653069#2 88653069#1 -88652935#7"/>
    </vehicle>
    <vehicle id="98" type="passenger" depart="39.20">
        <route edges="499345240 88652927#5 88652927#6 88652927#7 88652927#8 88652927#1 88652927#2 88652927#3 499345241 88652935#0 88653160#4 88653160#7 88653160#10 -88652883#11"/>
    </vehicle>
    <vehicle id="99" type="passenger" depart="39.60">
        <route edges="499157202#0 88653005 -88652940#2 12875760#0 88652883#4 88652883#7"/>
    </vehicle>
    <vehicle id="100" type="passenger" depart="40.00">
        <route edges="-E6 -88652995#3 E7 E17 -E18 -88652883#12 -88652883#11 -88652883#9 -E28 E27 -E25"/>
    </vehicle>
    <vehicle id="101" type="passenger" depart="40.40">
        <route edges="E11 E12 88653125#0 -499157202#5 88653155 -88652940#5 -88652940#2 12875760#0 88652883#4 -E28 E27 -E25 Node6_2_SB -88653190#2 499329577 88653121#1 499329575"/>
    </vehicle>
    <vehicle id="102" type="passenger" depart="40.80">
        <route edges="E36 -E37 Node9_4_NB -88653122#1 499329568 88653121#5 88653121#6 88653121#7 499329582 88653190#0 Node6_2_NB E25 -E27 E28"/>
    </vehicle>
    <vehicle id="103" type="passenger" depart="41.20">
        <route edges="E11 E12 88653125#0 499157202#6 E10 -E9 E17 -E18"/>
    </vehicle>
    <vehicle id="104" type="passenger" depart="41.60">
        <route edges="E23 Node6_2_SB -88653190#2 499329577 88653121#1 88653121#2 88653121#3 88653121#4 88653121#5 499329562 Node8_3_EB -497324182#3 -497324182#0"/>
    </vehicle>
    <vehicle id="105" type="passenger" depart="42.00">
        <route edges="499329575 88653179#0 499345245 88652927#1 499345246 -88652908#8 Node5_1_NB E23 Node6_2_SB Node1_2_WB"/>
    </vehicle>
    <vehicle id="106" type="passenger" depart="42.40">
        <route edges="499345244 -88653179#7 499329572 88653121#3 88653121#4 88653121#5 499329562"/>
    </vehicle>
    <vehicle id="107" type="passenger" depart="42.80">
        <route edges="-87355168#3 -87355168#0 E0 E2 Node10_4_WB 497324181#1 497324181#1-AddedOffRampEdge 497324181#8 -E5 88653160#2 88652935#7 -88653069#2 -88652883#12"/>
    </vehicle>
    <vehicle id="108" type="passenger" depart="43.20">
        <route edges="-88652908#0 88652883#10 88652883#12 88653069#1 -88652935#7"/>
    </vehicle>
    <vehicle id="109" type="passenger" depart="43.60">
        <route edges="-87355168#0 E0 E2 Node10_4_WB 497324181#1 497324181#1-AddedOffRampEdge 497324181#8 -E5 88653160#2 88653160#4 88653160#7 88653160#10 -88653160#10"/>
    </vehicle>
    <vehicle id="110" type="passenger" depart="44.00">
        <route edges="E6 -88652935#7 -88652935#6 499345240 88652927#5 88652927#6 88652927#7 499345244 -88653179#7 499329572 88653121#3 88653121#4 88653121#5 499329562 Node8_3_EB -497324182#3"/>
    </vehicle>
    <vehicle id="111" type="passenger" depart="44.40">
        <route edges="-E37 Node9_4_NB 497325350#0 497324183#7 E36 E35 -E4"/>
    </vehicle>
    <vehicle id="112" type="passenger" depart="44.80">
        <route edges="-88652883#12 -88652883#11 -88652883#9 -E28 E27 -E25 Node6_2_SB -88653190#2 499329577 88653121#1 88653121#2 88653121#3 499329570 499329568"/>
    </vehicle>
    <vehicle id="113" type="passenger" depart="45.20">
        <route edges="E1 611320511 -87355168#0 E0 E2 Node10_4_WB -88653142#2 -88653142#0 499345242 88652927#7 88652927#8 88652927#1 499345246 -88652908#8 Node5_1_NB -88652908#2 -88652908#0 -88652883#9 -E28"/>
    </vehicle>
    <vehicle id="114" type="passenger" depart="45.60">
        <route edges="499157202#1 88653155 -88652940#5 -88652940#2 12875760#0 88652883#4 -E28 E27 -E25 Node6_2_SB"/>
    </vehicle>
    <vehicle id="115" type="passenger" depart="46.00">
        <route edges="88653190#0 -88653190#2 499329577 88653121#1 88653121#2 88653121#3 499329570"/>
    </vehicle>
    <vehicle id="116" type="passenger" depart="46.40">
        <route edges="499157202#0 88653005 88652940#3"/>
    </vehicle>
    <vehicle id="117" type="passenger" depart="46.80">
        <route edges="611320511 -87355168#0 E0 E2 Node9_4_NB -88653122#1 499329568 88653121#5 88653121#6 88653121#7 499329582 88653190#0 Node6_2_NB E25 -E27 E28 -88652883#6 -12875760#1 88652940#2"/>
    </vehicle>
    <vehicle id="118" type="passenger" depart="47.20">
        <route edges="-E0 87355168#0 -87355168#0 E0 E2 Node10_4_WB -88653142#2"/>
    </vehicle>
    <vehicle id="119" type="passenger" depart="47.60">
        <route edges="Node5_1_SB Node0_1_WB 88653160#7 88653160#10 88652883#12"/>
    </vehicle>
    <vehicle id="120" type="passenger" depart="48.00">
        <route edges="Node6_2_SB E20"/>
    </vehicle>
    <vehicle id="121" type="passenger" depart="48.40">
        <route edges="Node5_1_SB Node0_1_WB -88653160#6 -88653160#3 E5"/>
    </vehicle>
    <vehicle id="122" type="passenger" depart="48.80">
        <route edges="E17 -E18 88653069#1 -E6 -88652995#3"/>
    </vehicle>
    <vehicle id="123" type="passenger" depart="49.20">
        <route edges="-88653142#2 -88653142#0 499345242 88652927#7 88652927#8 88652927#1 499345246 -88652908#8 Node5_1_NB -88652908#2 -88652908#0"/>
    </vehicle>
    <vehicle id="124" type="passenger" depart="49.60">
        <route edges="88653155"/>
    </vehicle>
    <vehicle id="125" type="passenger" depart="50.00">
        <route edges="-88653197#4 -88653197#3 -E25 Node6_2_SB -88653190#2 499329577 88653121#1 88653121#2 88653121#3 88653121#4 88653121#5 499329562"/>
    </vehicle>
    <vehicle id="126" type="passenger" depart="50.40">
        <route edges="499345245 88652927#1 499345246 -88652908#8 Node5_1_NB -88652908#2 -88652908#0 88652883#10 -88653160#10"/>
    </vehicle>
    <vehicle id="127" type="passenger" depart="50.80">
        <route edges="88652995#0 E6 -88652935#7 -88652935#6 499345240 88652927#5 88652927#6 88652927#7 499345244 -88653179#7 499329572 88653121#3 88653121#4 88653121#5 499329562 499329565"/>
    </vehicle>
    <vehicle id="128" type="passenger" depart="51.20">
        <route edges="499345243 88653142#0 88653142#1 Node10_4_EB -E2 E3 E4 -E35"/>
    </vehicle>
    <vehicle id="129" type="passenger" depart="51.60">
        <route edges="499329577 88653121#1 499329575 88653179#0 499345245 88652927#1 88652927#2 88652927#3 499345241 88652935#0 88653160#4 88653160#7 88653160#10"/>
    </vehicle>
    <vehicle id="130" type="passenger" depart="52.00">
        <route edges="E22 -88652908#2 -88652908#0 -88652883#9 -88652883#6 88652883#4"/>
    </vehicle>
    <vehicle id="131" type="passenger" depart="52.40">
        <route edges="Node7_3_NB -497324183#0 -88653197#4 -88653197#3 -E27 E28 -88652883#6"/>
    </vehicle>
    <vehicle id="132" type="passenger" depart="52.80">
        <route edges="88652940#2 -88652940#2 12875760#0 88652883#4 88652883#7 88652908#0 88652908#1 -E22 88653160#10"/>
    </vehicle>
    <vehicle id="133" type="passenger" depart="53.20">
        <route edges="88652940#2 -88652940#2 12875760#0 -88652883#3 88652913#1 -E32 -E30 497324182#0 -497324182#0"/>
    </vehicle>
    <vehicle id="134" type="passenger" depart="53.60">
        <route edges="-E25 Node6_2_SB -88653190#2 499329577 88653121#1 88653121#2 88653121#3 499329570 88653122#0 Node9_4_SB Node10_4_WB 497324181#1 497324181#1-AddedOffRampEdge 497324181#8 -E5 88653160#2"/>
    </vehicle>
    <vehicle id="135" type="passenger" depart="54.00">
        <route edges="-1094495155 -88653125#1 -E12 -E11 -E9 E17 -E18 88653069#1 -88652935#7 -88652935#6 499345240 88652927#5 499345243 88653142#0 88653142#1 497324181#1 497324181#1-AddedOffRampEdge 87355090#0 500773915#0 E0"/>
    </vehicle>
    <vehicle id="136" type="passenger" depart="54.40">
        <route edges="-E27 -E26 88652908#1 Node5_1_SB 88652908#7 499345247 88652927#3 88652927#4 88652927#5 499345243 88653142#0 88653142#1 497324181#1 497324181#1-AddedOffRampEdge 497324181#8 -E5 88653102#0"/>
    </vehicle>
    <vehicle id="137" type="passenger" depart="54.80">
        <route edges="E23 E25 -E27 E28 -88652883#6 -12875760#1 88652940#2 88652940#3 -88653155 499157202#2 -88653125#1 -E12"/>
    </vehicle>
    <vehicle id="138" type="passenger" depart="55.20">
        <route edges="-E0 87355168#0 -87355168#0 E0 E2 Node9_4_NB Node9_4_SB"/>
    </vehicle>
    <vehicle id="139" type="passenger" depart="55.60">
        <route edges="88652935#0 -88653160#3 88653102#0 88653142#1 497324181#1 497324181#1-AddedOffRampEdge 87355090#0"/>
    </vehicle>
    <vehicle id="140" type="passenger" depart="56.00">
        <route edges="E17 -E18 -88652883#12 -88652883#11 88652908#0 88652908#1 Node5_1_SB 88652908#7"/>
    </vehicle>
    <vehicle id="141" type="passenger" depart="56.40">
        <route edges="88652940#2 -88652940#2 12875760#0 88652883#4 -E28 E27 -E25 Node6_2_SB -88653190#2 499329577 88653121#1 88653121#2 88653121#3 88653121#4 88653121#5 88653121#6 88653121#7 499329582 88653190#0"/>
    </vehicle>
    <vehicle id="142" type="passenger" depart="56.80">
        <route edges="Node5_1_SB Node5_1_NB -88652908#2 -88652908#0 -88652883#9 -88652883#6 -12875760#1 88652940#2 88652940#3 E16"/>
    </vehicle>
    <vehicle id="143" type="passenger" depart="57.20">