<?xml version="1.0" encoding="UTF-8"?>

<!-- generated on 2026-04-12 20:46:05.741957 by Eclipse SUMO randomTrips.py v1_25_0+0000-ac6c5a6752d
<configuration>
    <net-file value="C:\Users\Edawi\OneDrive\Desktop\work\Map3\RL.net.xml"/>
    <output-trip-file value="C:\Users\Edawi\OneDrive\Desktop\work\Map3\random.trips.xml"/>
    <route-file value="C:\Users\Edawi\OneDrive\Desktop\work\Map3\random2.rou.xml"/>
    <vehicle-class value="passenger"/>
    <random-departpos value="True"/>
    <random-arrivalpos value="True"/>
    <seed value="744180"/>
    <random value="True"/>
    <remove-loops value="True"/>
    <end value="1240.0"/>
    <period value="0.19"/>
    <poisson value="True"/>
    <random-depart value="True"/>
</configuration>
-->

<routes xmlns:xsi="http://www.w3.org/2001/XMLSchema-instance" xsi:noNamespaceSchemaLocation="http://sumo.dlr.de/xsd/routes_file.xsd">
    <vType id="passenger" vClass="passenger"/>
    <trip id="0" depart="0.11" from="-E11" to="E24" type="passenger" departPos="43.08" arrivalPos="115.92"/>
    <trip id="1" depart="0.39" from="E1" to="E21" type="passenger" departPos="36.89" arrivalPos="36.11"/>
    <trip id="2" depart="0.47" from="E21" to="E3" type="passenger" departPos="24.87" arrivalPos="71.74"/>
    <trip id="3" depart="0.70" from="Node1_2_WB" to="E3" type="passenger" departPos="101.18" arrivalPos="45.76"/>
    <trip id="4" depart="0.87" from="Node2_7_SB" to="E15" type="passenger" departPos="3.26" arrivalPos="27.60"/>
    <trip id="5" depart="1.10" from="Node2_5_SB" to="-E2" type="passenger" departPos="13.98" arrivalPos="42.82"/>
    <trip id="6" depart="1.17" from="-E29" to="-E29" type="passenger" departPos="38.46" arrivalPos="73.85"/>
    <trip id="7" depart="1.19" from="Node1_2_EB" to="-E3" type="passenger" departPos="39.62" arrivalPos="97.69"/>
    <trip id="8" depart="1.79" from="E29" to="-E3" type="passenger" departPos="94.72" arrivalPos="17.14"/>
    <trip id="9" depart="2.11" from="Node2_3_WB" to="-E13" type="passenger" departPos="22.90" arrivalPos="2.27"/>
    <trip id="10" depart="2.33" from="-E12" to="E3" type="passenger" departPos="74.07" arrivalPos="97.03"/>
    <trip id="11" depart="2.50" from="-E29" to="Node1_2_WB" type="passenger" departPos="70.91" arrivalPos="52.91"/>
    <trip id="12" depart="2.52" from="Node2_3_WB" to="E2" type="passenger" departPos="18.66" arrivalPos="56.66"/>
    <trip id="13" depart="2.58" from="E23" to="E23" type="passenger" departPos="93.04" arrivalPos="78.61"/>
    <trip id="14" depart="2.66" from="-E3" to="-E22" type="passenger" departPos="33.40" arrivalPos="34.08"/>
    <trip id="15" depart="2.81" from="E1" to="-E13" type="passenger" departPos="42.40" arrivalPos="53.97"/>
    <trip id="16" depart="2.93" from="E2" to="-E22" type="passenger" departPos="50.25" arrivalPos="77.96"/>
    <trip id="17" depart="3.37" from="-E0" to="E1" type="passenger" departPos="116.41" arrivalPos="33.90"/>
    <trip id="18" depart="3.51" from="-E14" to="E1" type="passenger" departPos="64.40" arrivalPos="37.15"/>
    <trip id="19" depart="3.68" from="-E13" to="-E2" type="passenger" departPos="103.06" arrivalPos="113.10"/>
    <trip id="20" depart="3.78" from="-E16" to="Node2_7_NB" type="passenger" departPos="116.56" arrivalPos="107.58"/>
    <trip id="21" depart="4.00" from="-E18" to="E10" type="passenger" departPos="34.34" arrivalPos="15.13"/>
    <trip id="22" depart="4.13" from="-E17" to="-E18" type="passenger" departPos="65.65" arrivalPos="113.31"/>
    <trip id="23" depart="4.13" from="-E2" to="-E19" type="passenger" departPos="7.36" arrivalPos="62.52"/>
    <trip id="24" depart="4.50" from="-E2" to="-E15" type="passenger" departPos="118.51" arrivalPos="20.94"/>
    <trip id="25" depart="4.60" from="E18" to="-E0" type="passenger" departPos="60.44" arrivalPos="13.53"/>
    <trip id="26" depart="4.76" from="Node2_7_SB" to="-E21" type="passenger" departPos="114.66" arrivalPos="18.19"/>
    <trip id="27" depart="4.77" from="E0" to="Node1_2_WB" type="passenger" departPos="1.10" arrivalPos="73.29"/>
    <trip id="28" depart="5.05" from="-E2" to="-E19" type="passenger" departPos="111.83" arrivalPos="17.76"/>
    <trip id="29" depart="5.10" from="Node2_5_SB" to="-E14" type="passenger" departPos="50.37" arrivalPos="0.83"/>
    <trip id="30" depart="5.11" from="E2" to="-E14" type="passenger" departPos="23.47" arrivalPos="82.86"/>
    <trip id="31" depart="5.15" from="-E18" to="Node2_5_NB" type="passenger" departPos="99.85" arrivalPos="35.34"/>
    <trip id="32" depart="5.20" from="-E12" to="E16" type="passenger" departPos="96.74" arrivalPos="84.65"/>
    <trip id="33" depart="5.49" from="-E3" to="-E25" type="passenger" departPos="35.44" arrivalPos="97.37"/>
    <trip id="34" depart="5.87" from="E11" to="E16" type="passenger" departPos="43.19" arrivalPos="96.08"/>
    <trip id="35" depart="6.13" from="E16" to="E1" type="passenger" departPos="78.00" arrivalPos="80.03"/>
    <trip id="36" depart="6.49" from="-E12" to="-E11" type="passenger" departPos="46.85" arrivalPos="15.13"/>
    <trip id="37" depart="6.57" from="E10" to="-E13" type="passenger" departPos="86.20" arrivalPos="50.45"/>
    <trip id="38" depart="6.71" from="E22" to="-E3" type="passenger" departPos="91.23" arrivalPos="64.44"/>
    <trip id="39" depart="6.82" from="Node2_7_SB" to="-E24" type="passenger" departPos="28.38" arrivalPos="8.44"/>
    <trip id="40" depart="6.97" from="-E19" to="Node2_3_EB" type="passenger" departPos="86.34" arrivalPos="60.25"/>
    <trip id="41" depart="7.19" from="-E17" to="-E19" type="passenger" departPos="119.28" arrivalPos="69.43"/>
    <trip id="42" depart="7.20" from="-E0" to="-E24" type="passenger" departPos="79.70" arrivalPos="68.59"/>
    <trip id="43" depart="7.30" from="-E0" to="E2" type="passenger" departPos="59.27" arrivalPos="116.57"/>
    <trip id="44" depart="7.69" from="E10" to="Node2_3_EB" type="passenger" departPos="83.56" arrivalPos="77.28"/>
    <trip id="45" depart="7.77" from="E13" to="Node2_3_WB" type="passenger" departPos="113.77" arrivalPos="44.27"/>
    <trip id="46" depart="7.86" from="-E18" to="E12" type="passenger" departPos="88.35" arrivalPos="20.59"/>
    <trip id="47" depart="8.13" from="E12" to="-E18" type="passenger" departPos="13.66" arrivalPos="34.64"/>
    <trip id="48" depart="8.25" from="-E15" to="Node1_2_WB" type="passenger" departPos="43.37" arrivalPos="61.94"/>
    <trip id="49" depart="8.25" from="-E3" to="-E22" type="passenger" departPos="114.39" arrivalPos="109.29"/>
    <trip id="50" depart="8.74" from="-E22" to="E13" type="passenger" departPos="47.60" arrivalPos="20.39"/>
    <trip id="51" depart="8.88" from="E16" to="-E22" type="passenger" departPos="51.42" arrivalPos="73.86"/>
    <trip id="52" depart="9.74" from="E22" to="-E15" type="passenger" departPos="6.09" arrivalPos="44.20"/>
    <trip id="53" depart="9.92" from="-E24" to="E22" type="passenger" departPos="92.65" arrivalPos="1.60"/>
    <trip id="54" depart="10.32" from="Node2_3_WB" to="-E24" type="passenger" departPos="75.47" arrivalPos="30.85"/>
    <trip id="55" depart="10.35" from="E14" to="E17" type="passenger" departPos="18.19" arrivalPos="73.37"/>
    <trip id="56" depart="10.39" from="E10" to="-E13" type="passenger" departPos="57.54" arrivalPos="69.30"/>
    <trip id="57" depart="10.50" from="-E13" to="-E22" type="passenger" departPos="83.38" arrivalPos="1.99"/>
    <trip id="58" depart="10.60" from="Node2_7_SB" to="-E19" type="passenger" departPos="117.89" arrivalPos="86.54"/>
    <trip id="59" depart="10.75" from="-E15" to="-E22" type="passenger" departPos="49.08" arrivalPos="117.88"/>
    <trip id="60" depart="11.13" from="-E2" to="-E11" type="passenger" departPos="5.25" arrivalPos="34.61"/>
    <trip id="61" depart="11.52" from="-E12" to="E0" type="passenger" departPos="37.75" arrivalPos="106.88"/>
    <trip id="62" depart="11.69" from="E18" to="E16" type="passenger" departPos="63.62" arrivalPos="109.10"/>
    <trip id="63" depart="11.76" from="E18" to="E24" type="passenger" departPos="50.49" arrivalPos="53.07"/>
    <trip id="64" depart="11.80" from="E13" to="E2" type="passenger" departPos="6.03" arrivalPos="119.15"/>
    <trip id="65" depart="11.86" from="-E13" to="-E15" type="passenger" departPos="44.43" arrivalPos="112.64"/>
    <trip id="66" depart="12.07" from="-E15" to="E10" type="passenger" departPos="49.42" arrivalPos="14.97"/>
    <trip id="67" depart="12.38" from="-E0" to="Node2_5_NB" type="passenger" departPos="63.97" arrivalPos="30.78"/>
    <trip id="68" depart="12.44" from="E17" to="E12" type="passenger" departPos="58.05" arrivalPos="88.46"/>
    <trip id="69" depart="12.53" from="E22" to="-E19" type="passenger" departPos="71.01" arrivalPos="1.44"/>
    <trip id="70" depart="12.66" from="E22" to="E23" type="passenger" departPos="78.09" arrivalPos="0.95"/>
    <trip id="71" depart="12.90" from="E29" to="E15" type="passenger" departPos="53.85" arrivalPos="19.87"/>
    <trip id="72" depart="13.23" from="-E18" to="-E1" type="passenger" departPos="63.00" arrivalPos="35.01"/>
    <trip id="73" depart="13.24" from="Node1_2_EB" to="-E2" type="passenger" departPos="14.10" arrivalPos="11.65"/>
    <trip id="74" depart="13.36" from="-E1" to="-E14" type="passenger" departPos="90.48" arrivalPos="23.53"/>
    <trip id="75" depart="14.38" from="E2" to="Node1_2_EB" type="passenger" departPos="6.30" arrivalPos="14.83"/>
    <trip id="76" depart="14.43" from="-E29" to="E17" type="passenger" departPos="13.40" arrivalPos="25.46"/>
    <trip id="77" depart="14.57" from="E25" to="Node2_3_EB" type="passenger" departPos="102.57" arrivalPos="107.56"/>
    <trip id="78" depart="14.59" from="-E23" to="E15" type="passenger" departPos="25.59" arrivalPos="112.82"/>
    <trip id="79" depart="14.71" from="Node2_7_SB" to="E11" type="passenger" departPos="38.55" arrivalPos="11.89"/>
    <trip id="80" depart="14.94" from="-E3" to="E2" type="passenger" departPos="29.39" arrivalPos="61.33"/>
    <trip id="81" depart="15.93" from="E18" to="E22" type="passenger" departPos="56.16" arrivalPos="104.84"/>
    <trip id="82" depart="16.03" from="-E16" to="E22" type="passenger" departPos="83.33" arrivalPos="56.55"/>
    <trip id="83" depart="16.66" from="-E10" to="-E1" type="passenger" departPos="10.31" arrivalPos="86.49"/>
    <trip id="84" depart="16.71" from="-E13" to="-E0" type="passenger" departPos="59.79" arrivalPos="96.24"/>
    <trip id="85" depart="17.09" from="-E17" to="-E2" type="passenger" departPos="99.29" arrivalPos="89.37"/>
    <trip id="86" depart="17.22" from="E14" to="E21" type="passenger" departPos="70.08" arrivalPos="6.07"/>
    <trip id="87" depart="17.34" from="Node1_2_WB" to="-E22" type="passenger" departPos="86.21" arrivalPos="113.62"/>
    <trip id="88" depart="17.48" from="-E29" to="E3" type="passenger" departPos="60.81" arrivalPos="118.05"/>
    <trip id="89" depart="17.75" from="-E21" to="-E13" type="passenger" departPos="79.93" arrivalPos="42.87"/>
    <trip id="90" depart="17.90" from="-E22" to="E29" type="passenger" departPos="112.82" arrivalPos="76.71"/>
    <trip id="91" depart="18.19" from="-E15" to="E15" type="passenger" departPos="43.65" arrivalPos="100.68"/>
    <trip id="92" depart="18.22" from="-E12" to="Node2_5_SB" type="passenger" departPos="72.87" arrivalPos="75.59"/>
    <trip id="93" depart="18.22" from="Node2_3_EB" to="-E14" type="passenger" departPos="93.07" arrivalPos="25.75"/>
    <trip id="94" depart="18.30" from="E19" to="-E0" type="passenger" departPos="62.04" arrivalPos="0.40"/>
    <trip id="95" depart="18.78" from="E22" to="E18" type="passenger" departPos="26.28" arrivalPos="22.53"/>
    <trip id="96" depart="18.93" from="E25" to="-E1" type="passenger" departPos="109.55" arrivalPos="85.81"/>
    <trip id="97" depart="19.02" from="Node1_2_EB" to="-E29" type="passenger" departPos="20.24" arrivalPos="25.66"/>
    <trip id="98" depart="19.05" from="E11" to="-E16" type="passenger" departPos="106.95" arrivalPos="6.98"/>
    <trip id="99" depart="19.25" from="-E14" to="E3" type="passenger" departPos="19.08" arrivalPos="13.48"/>
    <trip id="100" depart="19.62" from="Node1_2_EB" to="E2" type="passenger" departPos="35.76" arrivalPos="35.39"/>
    <trip id="101" depart="19.83" from="-E23" to="-E2" type="passenger" departPos="18.36" arrivalPos="105.70"/>
    <trip id="102" depart="20.18" from="-E16" to="E22" type="passenger" departPos="16.99" arrivalPos="11.89"/>
    <trip id="103" depart="20.36" from="-E21" to="-E15" type="passenger" departPos="73.94" arrivalPos="115.10"/>
    <trip id="104" depart="20.41" from="-E15" to="E23" type="passenger" departPos="64.74" arrivalPos="23.56"/>
    <trip id="105" depart="20.43" from="-E11" to="Node2_5_SB" type="passenger" departPos="15.96" arrivalPos="34.21"/>
    <trip id="106" depart="20.59" from="-E25" to="E13" type="passenger" departPos="99.25" arrivalPos="57.06"/>
    <trip id="107" depart="20.62" from="E29" to="E11" type="passenger" departPos="78.09" arrivalPos="40.51"/>
    <trip id="108" depart="20.85" from="-E2" to="-E18" type="passenger" departPos="57.43" arrivalPos="12.14"/>
    <trip id="109" depart="21.65" from="E12" to="Node2_5_NB" type="passenger" departPos="28.18" arrivalPos="50.42"/>
    <trip id="110" depart="21.82" from="E19" to="E19" type="passenger" departPos="11.84" arrivalPos="35.97"/>
    <trip id="111" depart="21.82" from="-E13" to="E29" type="passenger" departPos="110.02" arrivalPos="8.54"/>
    <trip id="112" depart="21.96" from="E23" to="Node2_5_SB" type="passenger" departPos="18.38" arrivalPos="28.91"/>
    <trip id="113" depart="21.97" from="-E23" to="E3" type="passenger" departPos="56.48" arrivalPos="96.07"/>
    <trip id="114" depart="22.01" from="Node2_5_SB" to="E0" type="passenger" departPos="84.77" arrivalPos="108.21"/>
    <trip id="115" depart="22.16" from="E17" to="E21" type="passenger" departPos="114.49" arrivalPos="38.31"/>
    <trip id="116" depart="22.57" from="Node2_7_SB" to="-E10" type="passenger" departPos="110.65" arrivalPos="13.61"/>
    <trip id="117" depart="22.57" from="Node2_3_WB" to="Node1_2_WB" type="passenger" departPos="90.33" arrivalPos="57.72"/>
    <trip id="118" depart="22.60" from="-E23" to="E21" type="passenger" departPos="37.30" arrivalPos="36.07"/>
    <trip id="119" depart="22.83" from="-E1" to="-E14" type="passenger" departPos="109.86" arrivalPos="18.37"/>
    <trip id="120" depart="22.89" from="E15" to="-E12" type="passenger" departPos="114.81" arrivalPos="46.84"/>
    <trip id="121" depart="23.12" from="E3" to="-E3" type="passenger" departPos="85.38" arrivalPos="96.81"/>
    <trip id="122" depart="23.26" from="E18" to="-E18" type="passenger" departPos="46.94" arrivalPos="17.26"/>
    <trip id="123" depart="23.37" from="-E1" to="E1" type="passenger" departPos="4.78" arrivalPos="116.43"/>
    <trip id="124" depart="23.52" from="-E22" to="-E15" type="passenger" departPos="92.80" arrivalPos="10.82"/>
    <trip id="125" depart="24.15" from="E21" to="-E21" type="passenger" departPos="53.11" arrivalPos="17.23"/>
    <trip id="126" depart="24.23" from="-E3" to="-E23" type="passenger" departPos="42.42" arrivalPos="94.70"/>
    <trip id="127" depart="24.48" from="Node1_2_WB" to="E10" type="passenger" departPos="100.28" arrivalPos="53.59"/>
    <trip id="128" depart="24.50" from="-E18" to="E25" type="passenger" departPos="56.05" arrivalPos="117.68"/>
    <trip id="129" depart="24.56" from="-E16" to="E3" type="passenger" departPos="83.87" arrivalPos="40.04"/>
    <trip id="130" depart="24.77" from="E11" to="Node2_3_EB" type="passenger" departPos="110.37" arrivalPos="95.56"/>
    <trip id="131" depart="24.93" from="E15" to="-E0" type="passenger" departPos="64.79" arrivalPos="71.59"/>
    <trip id="132" depart="25.01" from="-E22" to="Node2_3_WB" type="passenger" departPos="105.86" arrivalPos="7.40"/>
    <trip id="133" depart="25.14" from="Node1_2_WB" to="-E23" type="passenger" departPos="98.88" arrivalPos="101.70"/>
    <trip id="134" depart="25.26" from="E12" to="E12" type="passenger" departPos="60.11" arrivalPos="109.78"/>
    <trip id="135" depart="25.52" from="E3" to="E17" type="passenger" departPos="52.76" arrivalPos="44.65"/>
    <trip id="136" depart="25.74" from="-E13" to="Node2_3_WB" type="passenger" departPos="106.33" arrivalPos="88.82"/>
    <trip id="137" depart="25.79" from="Node2_5_NB" to="-E17" type="passenger" departPos="4.83" arrivalPos="122.12"/>
    <trip id="138" depart="25.85" from="E15" to="E24" type="passenger" departPos="102.61" arrivalPos="84.46"/>
    <trip id="139" depart="25.93" from="-E12" to="E18" type="passenger" departPos="61.13" arrivalPos="19.28"/>
    <trip id="140" depart="26.05" from="-E23" to="-E15" type="passenger" departPos="90.85" arrivalPos="71.97"/>
    <trip id="141" depart="26.32" from="-E16" to="E1" type="passenger" departPos="117.39" arrivalPos="75.74"/>
    <trip id="142" depart="26.68" from="-E14" to="-E23" type="passenger" departPos="69.90" arrivalPos="111.05"/>
    <trip id="143" depart="26.69" from="E25" to="-E11" type="passenger" departPos="14.88" arrivalPos="60.28"/>
    <trip id="144" depart="26.69" from="E15" to="-E18" type="passenger" departPos="55.74" arrivalPos="50.07"/>
    <trip id="145" depart="26.92" from="E19" to="-E29" type="passenger" departPos="66.23" arrivalPos="7.42"/>
    <trip id="146" depart="26.99" from="Node2_3_EB" to="-E24" type="passenger" departPos="3.07" arrivalPos="19.49"/>
    <trip id="147" depart="27.47" from="-E21" to="Node2_3_WB" type="passenger" departPos="16.79" arrivalPos="104.01"/>
    <trip id="148" depart="27.56" from="Node2_5_NB" to="E14" type="passenger" departPos="7.00" arrivalPos="19.90"/>
    <trip id="149" depart="27.89" from="-E24" to="-E13" type="passenger" departPos="0.85" arrivalPos="111.22"/>
    <trip id="150" depart="28.17" from="-E12" to="Node1_2_EB" type="passenger" departPos="74.01" arrivalPos="82.23"/>
    <trip id="151" depart="28.22" from="-E13" to="Node2_5_SB" type="passenger" departPos="22.79" arrivalPos="0.71"/>
    <trip id="152" depart="28.23" from="E1" to="-E17" type="passenger" departPos="41.75" arrivalPos="30.01"/>
    <trip id="153" depart="28.24" from="-E0" to="E29" type="passenger" departPos="95.61" arrivalPos="87.87"/>
    <trip id="154" depart="28.24" from="-E24" to="E29" type="passenger" departPos="106.40" arrivalPos="105.30"/>
    <trip id="155" depart="28.29" from="E25" to="-E14" type="passenger" departPos="107.72" arrivalPos="99.43"/>
    <trip id="156" depart="28.32" from="-E17" to="E29" type="passenger" departPos="48.25" arrivalPos="116.70"/>
    <trip id="157" depart="28.36" from="-E19" to="-E13" type="passenger" departPos="12.15" arrivalPos="30.99"/>
    <trip id="158" depart="28.58" from="E10" to="-E2" type="passenger" departPos="39.74" arrivalPos="14.88"/>
    <trip id="159" depart="28.81" from="E29" to="Node2_5_NB" type="passenger" departPos="76.51" arrivalPos="49.66"/>
    <trip id="160" depart="29.33" from="E2" to="-E1" type="passenger" departPos="60.54" arrivalPos="78.51"/>
    <trip id="161" depart="29.37" from="-E17" to="E19" type="passenger" departPos="27.93" arrivalPos="60.47"/>
    <trip id="162" depart="30.10" from="-E14" to="-E18" type="passenger" departPos="96.97" arrivalPos="69.85"/>
    <trip id="163" depart="30.45" from="E11" to="-E2" type="passenger" departPos="46.11" arrivalPos="38.78"/>
    <trip id="164" depart="31.18" from="E22" to="E15" type="passenger" departPos="65.11" arrivalPos="32.73"/>
    <trip id="165" depart="31.51" from="E10" to="-E17" type="passenger" departPos="111.22" arrivalPos="61.02"/>
    <trip id="166" depart="32.27" from="-E23" to="Node1_2_EB" type="passenger" departPos="71.74" arrivalPos="11.75"/>
    <trip id="167" depart="32.75" from="-E21" to="E17" type="passenger" departPos="84.02" arrivalPos="0.08"/>
    <trip id="168" depart="32.92" from="E2" to="-E10" type="passenger" departPos="53.43" arrivalPos="23.05"/>
    <trip id="169" depart="33.40" from="E0" to="E12" type="passenger" departPos="94.46" arrivalPos="25.79"/>
    <trip id="170" depart="33.52" from="-E25" to="-E10" type="passenger" departPos="40.37" arrivalPos="31.98"/>
    <trip id="171" depart="33.57" from="E23" to="-E16" type="passenger" departPos="113.64" arrivalPos="13.47"/>
    <trip id="172" depart="33.70" from="E29" to="E10" type="passenger" departPos="36.61" arrivalPos="37.12"/>
    <trip id="173" depart="34.13" from="E29" to="-E17" type="passenger" departPos="86.75" arrivalPos="90.68"/>
    <trip id="174" depart="34.35" from="E24" to="E17" type="passenger" departPos="50.74" arrivalPos="118.02"/>
    <trip id="175" depart="34.61" from="E14" to="-E29" type="passenger" departPos="76.56" arrivalPos="94.61"/>
    <trip id="176" depart="34.63" from="-E15" to="-E21" type="passenger" departPos="28.74" arrivalPos="95.84"/>
    <trip id="177" depart="35.01" from="E17" to="Node1_2_EB" type="passenger" departPos="110.27" arrivalPos="92.02"/>
    <trip id="178" depart="35.51" from="Node1_2_EB" to="E1" type="passenger" departPos="75.22" arrivalPos="58.10"/>
    <trip id="179" depart="35.71" from="E16" to="E15" type="passenger" departPos="117.71" arrivalPos="88.87"/>
    <trip id="180" depart="35.82" from="E3" to="E21" type="passenger" departPos="34.86" arrivalPos="57.85"/>
    <trip id="181" depart="35.93" from="-E23" to="E3" type="passenger" departPos="85.68" arrivalPos="93.62"/>
    <trip id="182" depart="36.30" from="E18" to="-E21" type="passenger" departPos="66.75" arrivalPos="54.40"/>
    <trip id="183" depart="36.53" from="Node1_2_WB" to="E16" type="passenger" departPos="56.74" arrivalPos="104.85"/>
    <trip id="184" depart="36.63" from="E18" to="-E12" type="passenger" departPos="35.92" arrivalPos="48.56"/>
    <trip id="185" depart="36.98" from="-E2" to="-E2" type="passenger" departPos="70.51" arrivalPos="31.68"/>
    <trip id="186" depart="37.18" from="E15" to="E16" type="passenger" departPos="18.03" arrivalPos="36.55"/>
    <trip id="187" depart="37.24" from="E18" to="E22" type="passenger" departPos="0.18" arrivalPos="11.95"/>
    <trip id="188" depart="37.32" from="E21" to="Node1_2_WB" type="passenger" departPos="71.39" arrivalPos="30.30"/>
    <trip id="189" depart="37.58" from="Node2_7_SB" to="E17" type="passenger" departPos="90.36" arrivalPos="54.43"/>
    <trip id="190" depart="37.87" from="-E10" to="-E11" type="passenger" departPos="100.61" arrivalPos="111.28"/>
    <trip id="191" depart="38.16" from="-E10" to="-E17" type="passenger" departPos="61.58" arrivalPos="40.21"/>
    <trip id="192" depart="38.34" from="Node2_7_SB" to="Node2_3_WB" type="passenger" departPos="100.84" arrivalPos="31.56"/>
    <trip id="193" depart="38.34" from="E12" to="-E11" type="passenger" departPos="15.92" arrivalPos="47.33"/>
    <trip id="194" depart="38.94" from="-E12" to="-E29" type="passenger" departPos="54.29" arrivalPos="15.87"/>
    <trip id="195" depart="39.00" from="-E3" to="-E16" type="passenger" departPos="104.41" arrivalPos="51.49"/>
    <trip id="196" depart="39.34" from="-E11" to="E2" type="passenger" departPos="57.62" arrivalPos="53.84"/>
    <trip id="197" depart="39.36" from="-E15" to="E19" type="passenger" departPos="4.56" arrivalPos="63.50"/>
    <trip id="198" depart="39.45" from="E19" to="E22" type="passenger" departPos="115.77" arrivalPos="23.15"/>
    <trip id="199" depart="39.53" from="-E11" to="E3" type="passenger" departPos="73.36" arrivalPos="52.77"/>
    <trip id="200" depart="39.61" from="E25" to="Node1_2_WB" type="passenger" departPos="90.46" arrivalPos="55.34"/>
    <trip id="201" depart="39.76" from="E14" to="Node1_2_WB" type="passenger" departPos="37.35" arrivalPos="55.79"/>
    <trip id="202" depart="40.02" from="E12" to="Node2_7_NB" type="passenger" departPos="54.74" arrivalPos="65.91"/>
    <trip id="203" depart="40.04" from="Node1_2_EB" to="-E1" type="passenger" departPos="73.08" arrivalPos="22.76"/>
    <trip id="204" depart="40.17" from="E15" to="Node2_5_SB" type="passenger" departPos="48.08" arrivalPos="33.15"/>
    <trip id="205" depart="40.37" from="-E18" to="-E12" type="passenger" departPos="105.80" arrivalPos="47.62"/>
    <trip id="206" depart="40.49" from="E19" to="Node2_3_WB" type="passenger" departPos="90.19" arrivalPos="74.39"/>
    <trip id="207" depart="40.94" from="-E19" to="E22" type="passenger" departPos="74.33" arrivalPos="106.37"/>
    <trip id="208" depart="41.36" from="E29" to="E19" type="passenger" departPos="102.85" arrivalPos="100.17"/>
    <trip id="209" depart="41.41" from="E13" to="E0" type="passenger" departPos="19.22" arrivalPos="52.77"/>
    <trip id="210" depart="41.43" from="-E29" to="E10" type="passenger" departPos="111.44" arrivalPos="86.81"/>
    <trip id="211" depart="41.66" from="E13" to="Node2_3_WB" type="passenger" departPos="88.60" arrivalPos="97.02"/>
    <trip id="212" depart="41.89" from="Node1_2_WB" to="E17" type="passenger" departPos="33.53" arrivalPos="69.02"/>
    <trip id="213" depart="42.22" from="E21" to="-E2" type="passenger" departPos="67.93" arrivalPos="69.35"/>
    <trip id="214" depart="42.64" from="-E21" to="E22" type="passenger" departPos="61.24" arrivalPos="13.50"/>
    <trip id="215" depart="43.01" from="Node2_7_SB" to="E23" type="passenger" departPos="78.37" arrivalPos="33.08"/>
    <trip id="216" depart="43.09" from="Node1_2_EB" to="E23" type="passenger" departPos="43.72" arrivalPos="111.03"/>
    <trip id="217" depart="43.15" from="E21" to="-E24" type="passenger" departPos="111.83" arrivalPos="114.47"/>
    <trip id="218" depart="43.49" from="-E22" to="E11" type="passenger" departPos="23.14" arrivalPos="58.03"/>
    <trip id="219" depart="43.77" from="E12" to="Node2_7_NB" type="passenger" departPos="31.08" arrivalPos="94.55"/>
    <trip id="220" depart="43.80" from="Node1_2_EB" to="E15" type="passenger" departPos="87.51" arrivalPos="27.48"/>
    <trip id="221" depart="44.04" from="-E12" to="Node2_7_NB" type="passenger" departPos="64.14" arrivalPos="58.28"/>
    <trip id="222" depart="44.05" from="-E10" to="-E10" type="passenger" departPos="19.99" arrivalPos="73.19"/>
    <trip id="223" depart="44.14" from="-E21" to="-E2" type="passenger" departPos="47.11" arrivalPos="19.21"/>
    <trip id="224" depart="44.14" from="E21" to="-E23" type="passenger" departPos="57.81" arrivalPos="68.08"/>
    <trip id="225" depart="44.30" from="-E18" to="E0" type="passenger" departPos="11.25" arrivalPos="21.09"/>
    <trip id="226" depart="44.86" from="Node1_2_EB" to="Node2_5_NB" type="passenger" departPos="69.74" arrivalPos="79.01"/>
    <trip id="227" depart="45.03" from="E23" to="E12" type="passenger" departPos="54.35" arrivalPos="14.07"/>
    <trip id="228" depart="45.10" from="E17" to="-E12" type="passenger" departPos="64.64" arrivalPos="94.20"/>
    <trip id="229" depart="46.18" from="E3" to="E19" type="passenger" departPos="68.06" arrivalPos="35.16"/>
    <trip id="230" depart="46.59" from="-E10" to="E18" type="passenger" departPos="20.19" arrivalPos="75.62"/>
    <trip id="231" depart="46.62" from="-E21" to="E10" type="passenger" departPos="55.87" arrivalPos="36.00"/>
    <trip id="232" depart="46.66" from="E12" to="-E11" type="passenger" departPos="43.28" arrivalPos="80.49"/>
    <trip id="233" depart="46.80" from="E1" to="E25" type="passenger" departPos="48.79" arrivalPos="78.50"/>
    <trip id="234" depart="46.81" from="-E25" to="-E21" type="passenger" departPos="53.51" arrivalPos="33.05"/>
    <trip id="235" depart="47.18" from="Node2_5_NB" to="E3" type="passenger" departPos="103.87" arrivalPos="65.44"/>
    <trip id="236" depart="47.69" from="E1" to="Node1_2_EB" type="passenger" departPos="8.11" arrivalPos="94.44"/>
    <trip id="237" depart="47.71" from="E22" to="-E15" type="passenger" departPos="66.97" arrivalPos="4.19"/>
    <trip id="238" depart="47.78" from="Node2_5_SB" to="E11" type="passenger" departPos="3.83" arrivalPos="42.79"/>
    <trip id="239" depart="47.83" from="-E12" to="E3" type="passenger" departPos="26.81" arrivalPos="55.31"/>
    <trip id="240" depart="48.08" from="E2" to="-E3" type="passenger" departPos="77.53" arrivalPos="4.32"/>
    <trip id="241" depart="48.39" from="E19" to="Node2_7_NB" type="passenger" departPos="96.51" arrivalPos="50.93"/>
    <trip id="242" depart="48.55" from="E10" to="-E19" type="passenger" departPos="61.85" arrivalPos="97.14"/>
    <trip id="243" depart="48.83" from="Node1_2_WB" to="Node2_5_SB" type="passenger" departPos="66.26" arrivalPos="46.39"/>
    <trip id="244" depart="49.07" from="Node1_2_WB" to="E1" type="passenger" departPos="3.37" arrivalPos="25.13"/>
    <trip id="245" depart="49.63" from="E19" to="E13" type="passenger" departPos="79.67" arrivalPos="32.73"/>
    <trip id="246" depart="49.69" from="E23" to="E3" type="passenger" departPos="76.91" arrivalPos="100.68"/>
    <trip id="247" depart="49.76" from="-E14" to="E14" type="passenger" departPos="41.41" arrivalPos="69.92"/>
    <trip id="248" depart="49.77" from="-E18" to="E12" type="passenger" departPos="112.98" arrivalPos="101.41"/>
    <trip id="249" depart="49.96" from="Node1_2_WB" to="-E17" type="passenger" departPos="57.74" arrivalPos="77.55"/>
    <trip id="250" depart="49.99" from="-E21" to="-E2" type="passenger" departPos="31.04" arrivalPos="108.59"/>
    <trip id="251" depart="50.37" from="E19" to="-E22" type="passenger" departPos="31.25" arrivalPos="55.65"/>
    <trip id="252" depart="50.80" from="E2" to="Node2_3_WB" type="passenger" departPos="72.18" arrivalPos="51.31"/>
    <trip id="253" depart="50.94" from="E22" to="E14" type="passenger" departPos="62.72" arrivalPos="109.15"/>
    <trip id="254" depart="51.08" from="E22" to="-E15" type="passenger" departPos="110.33" arrivalPos="115.67"/>
    <trip id="255" depart="51.08" from="-E13" to="-E29" type="passenger" departPos="23.20" arrivalPos="113.80"/>
    <trip id="256" depart="51.22" from="-E24" to="-E15" type="passenger" departPos="96.26" arrivalPos="58.40"/>
    <trip id="257" depart="51.23" from="-E3" to="E23" type="passenger" departPos="89.41" arrivalPos="62.83"/>
    <trip id="258" depart="51.39" from="E22" to="-E2" type="passenger" departPos="26.36" arrivalPos="113.26"/>