<?xml version="1.0" encoding="UTF-8"?>

<!-- generated on 2026-04-12 20:46:06.751226 by Eclipse SUMO randomTrips.py v1_25_0+0000-ac6c5a6752d
<configuration>
    <net-file value="C:\Users\Edawi\OneDrive\Desktop\work\Map3\RL.net.xml"/>
    <output-trip-file value="C:\Users\Edawi\OneDrive\Desktop\work\Map3\random.trips.xml"/>
    <route-file value="C:\Users\Edawi\OneDrive\Desktop\work\Map3\random2.rou.xml"/>
    <vehicle-class value="passenger"/>
    <random-departpos value="True"/>
    <random-arrivalpos value="True"/>
    <seed value="744180"/>
    <random value="True"/>
    <remove-loops value="True"/>
    <end value="1240.0"/>
    <period value="0.19"/>
    <poisson value="True"/>
    <random-depart value="True"/>
</configuration>
-->

<!-- generated on 2026-04-12T20:46:06.181911+03:00 by Eclipse SUMO duarouter 1.25.0
<duarouterConfiguration xmlns:xsi="http://www.w3.org/2001/XMLSchema-instance" xsi:noNamespaceSchemaLocation="http://sumo.dlr.de/xsd/duarouterConfiguration.xsd">

    <input>
        <net-file value="C:\Users\Edawi\OneDrive\Desktop\work\Map3\RL.net.xml"/>
        <route-files value="C:\Users\Edawi\OneDrive\Desktop\work\Map3\random.trips.xml"/>
    </input>

    <output>
        <output-file value="C:\Users\Edawi\OneDrive\Desktop\work\Map3\random2.rou.xml"/>
        <alternatives-output value="NUL"/>
    </output>

    <processing>
        <remove-loops value="true"/>
    </processing>

    <time>
        <begin value="0.0"/>
        <end value="1240.0"/>
    </time>

    <report>
        <no-warnings value="true"/>
        <ignore-errors value="true"/>
        <no-step-log value="true"/>
    </report>

</duarouterConfiguration>
-->

<routes xmlns:xsi="http://www.w3.org/2001/XMLSchema-instance" xsi:noNamespaceSchemaLocation="http://sumo.dlr.de/xsd/routes_file.xsd">
    <vType id="passenger" vClass="passenger"/>
    <vehicle id="0" type="passenger" depart="0.11" departPos="43.08" arrivalPos="115.92">
        <route edges="-E11 -E10 Node2_3_WB Node1_2_WB E24"/>
    </vehicle>
    <vehicle id="1" type="passenger" depart="0.39" departPos="36.89" arrivalPos="36.11">
        <route edges="E1 E2 E3 -E0 -E12 -E11 E19 E21"/>
    </vehicle>
    <vehicle id="2" type="passenger" depart="0.47" departPos="24.87" arrivalPos="71.74">
        <route edges="E21 E22 -E18 E11 E12 E1 E2 E3"/>
    </vehicle>
    <vehicle id="3" type="passenger" depart="0.70" departPos="101.18" arrivalPos="45.76">
        <route edges="Node1_2_WB -E13 E1 E2 E3"/>
    </vehicle>
    <vehicle id="4" type="passenger" depart="0.87" departPos="3.26" arrivalPos="27.60">
        <route edges="Node2_7_SB Node2_3_EB E15"/>
    </vehicle>
    <vehicle id="5" type="passenger" depart="1.10" departPos="13.98" arrivalPos="42.82">
        <route edges="Node2_5_SB E12 E0 -E3 -E2"/>
    </vehicle>
    <vehicle id="6" type="passenger" depart="1.17" departPos="38.46" arrivalPos="73.85">
        <route edges="-E29"/>
    </vehicle>
    <vehicle id="7" type="passenger" depart="1.19" departPos="39.62" arrivalPos="97.69">
        <route edges="Node1_2_EB Node2_5_SB E12 E0 -E3"/>
    </vehicle>
    <vehicle id="8" type="passenger" depart="1.79" departPos="94.72" arrivalPos="17.14">
        <route edges="E29 -E23 -E13 E0 -E3"/>
    </vehicle>
    <vehicle id="9" type="passenger" depart="2.11" departPos="22.90" arrivalPos="2.27">
        <route edges="Node2_3_WB Node1_2_WB -E13"/>
    </vehicle>
    <vehicle id="10" type="passenger" depart="2.33" departPos="74.07" arrivalPos="97.03">
        <route edges="-E12 Node2_5_NB Node1_2_WB -E13 E1 E2 E3"/>
    </vehicle>
    <vehicle id="11" type="passenger" depart="2.50" departPos="70.91" arrivalPos="52.91">
        <route edges="-E29 -E25 -E24 -E13 -E12 Node2_5_NB Node1_2_WB"/>
    </vehicle>
    <vehicle id="12" type="passenger" depart="2.52" departPos="18.66" arrivalPos="56.66">
        <route edges="Node2_3_WB Node1_2_WB -E13 E1 E2"/>
    </vehicle>
    <vehicle id="13" type="passenger" depart="2.58" departPos="93.04" arrivalPos="78.61">
        <route edges="E23"/>
    </vehicle>
    <vehicle id="14" type="passenger" depart="2.66" departPos="33.40" arrivalPos="34.08">
        <route edges="-E3 -E2 -E1 -E12 -E11 E18 -E22"/>
    </vehicle>
    <vehicle id="15" type="passenger" depart="2.81" departPos="42.40" arrivalPos="53.97">
        <route edges="E1 E2 E3 -E0 -E12 Node2_5_NB Node1_2_WB -E13"/>
    </vehicle>
    <vehicle id="16" type="passenger" depart="2.93" departPos="50.25" arrivalPos="77.96">
        <route edges="E2 E3 -E0 -E12 -E11 E18 -E22"/>
    </vehicle>
    <vehicle id="17" type="passenger" depart="3.37" departPos="116.41" arrivalPos="33.90">
        <route edges="-E0 E1"/>
    </vehicle>
    <vehicle id="18" type="passenger" depart="3.51" departPos="64.40" arrivalPos="37.15">
        <route edges="-E14 E10 E11 E12 E1"/>
    </vehicle>
    <vehicle id="19" type="passenger" depart="3.68" departPos="103.06" arrivalPos="113.10">
        <route edges="-E13 E0 -E3 -E2"/>
    </vehicle>
    <vehicle id="20" type="passenger" depart="3.78" departPos="116.56" arrivalPos="107.58">
        <route edges="-E16 -E15 Node2_3_WB Node2_7_NB"/>
    </vehicle>
    <vehicle id="21" type="passenger" depart="4.00" departPos="34.34" arrivalPos="15.13">
        <route edges="-E18 E11 Node2_5_NB Node2_3_EB E10"/>
    </vehicle>
    <vehicle id="22" type="passenger" depart="4.13" departPos="65.65" arrivalPos="113.31">
        <route edges="-E17 -E16 -E15 E10 E19 E21 E22 -E18"/>
    </vehicle>
    <vehicle id="23" type="passenger" depart="4.13" departPos="7.36" arrivalPos="62.52">
        <route edges="-E2 -E1 -E12 -E11 E18 -E22 -E21 -E19"/>
    </vehicle>
    <vehicle id="24" type="passenger" depart="4.50" departPos="118.51" arrivalPos="20.94">
        <route edges="-E2 -E1 E13 Node1_2_EB Node2_3_EB E14 -E17 -E16 -E15"/>
    </vehicle>
    <vehicle id="25" type="passenger" depart="4.60" departPos="60.44" arrivalPos="13.53">
        <route edges="E18 -E22 -E21 -E19 E11 E12 E1 E2 E3 -E0"/>
    </vehicle>
    <vehicle id="26" type="passenger" depart="4.76" departPos="114.66" arrivalPos="18.19">
        <route edges="Node2_7_SB Node2_5_SB -E11 E18 -E22 -E21"/>
    </vehicle>
    <vehicle id="27" type="passenger" depart="4.77" departPos="1.10" arrivalPos="73.29">
        <route edges="E0 -E3 -E2 -E1 -E12 Node2_5_NB Node1_2_WB"/>
    </vehicle>
    <vehicle id="28" type="passenger" depart="5.05" departPos="111.83" arrivalPos="17.76">
        <route edges="-E2 -E1 -E12 -E11 E18 -E22 -E21 -E19"/>
    </vehicle>
    <vehicle id="29" type="passenger" depart="5.10" departPos="50.37" arrivalPos="0.83">
        <route edges="Node2_5_SB -E11 -E10 E15 E16 E17 -E14"/>
    </vehicle>
    <vehicle id="30" type="passenger" depart="5.11" departPos="23.47" arrivalPos="82.86">
        <route edges="E2 E3 -E0 -E12 -E11 -E10 E15 E16 E17 -E14"/>
    </vehicle>
    <vehicle id="31" type="passenger" depart="5.15" departPos="99.85" arrivalPos="35.34">
        <route edges="-E18 E11 Node2_5_NB"/>
    </vehicle>
    <vehicle id="32" type="passenger" depart="5.20" departPos="96.74" arrivalPos="84.65">
        <route edges="-E12 -E11 -E10 E15 E16"/>
    </vehicle>
    <vehicle id="33" type="passenger" depart="5.49" departPos="35.44" arrivalPos="97.37">
        <route edges="-E3 -E2 -E1 E13 E23 -E29 -E25"/>
    </vehicle>
    <vehicle id="34" type="passenger" depart="5.87" departPos="43.19" arrivalPos="96.08">
        <route edges="E11 Node2_5_NB Node2_3_EB E15 E16"/>
    </vehicle>
    <vehicle id="35" type="passenger" depart="6.13" departPos="78.00" arrivalPos="80.03">
        <route edges="E16 E17 -E14 E10 E11 E12 E1"/>
    </vehicle>
    <vehicle id="36" type="passenger" depart="6.49" departPos="46.85" arrivalPos="15.13">
        <route edges="-E12 -E11"/>
    </vehicle>
    <vehicle id="37" type="passenger" depart="6.57" departPos="86.20" arrivalPos="50.45">
        <route edges="E10 E11 Node2_5_NB Node1_2_WB -E13"/>
    </vehicle>
    <vehicle id="38" type="passenger" depart="6.71" departPos="91.23" arrivalPos="64.44">
        <route edges="E22 -E18 E11 E12 E0 -E3"/>
    </vehicle>
    <vehicle id="39" type="passenger" depart="6.82" departPos="28.38" arrivalPos="8.44">
        <route edges="Node2_7_SB Node1_2_WB E23 -E29 -E25 -E24"/>
    </vehicle>
    <vehicle id="40" type="passenger" depart="6.97" departPos="86.34" arrivalPos="60.25">
        <route edges="-E19 E11 Node2_5_NB Node2_3_EB"/>
    </vehicle>
    <vehicle id="41" type="passenger" depart="7.19" departPos="119.28" arrivalPos="69.43">
        <route edges="-E17 -E16 -E15 E10 E18 -E22 -E21 -E19"/>
    </vehicle>
    <vehicle id="42" type="passenger" depart="7.20" departPos="79.70" arrivalPos="68.59">
        <route edges="-E0 E13 E23 -E29 -E25 -E24"/>
    </vehicle>
    <vehicle id="43" type="passenger" depart="7.30" departPos="59.27" arrivalPos="116.57">
        <route edges="-E0 E1 E2"/>
    </vehicle>
    <vehicle id="44" type="passenger" depart="7.69" departPos="83.56" arrivalPos="77.28">
        <route edges="E10 E11 Node2_5_NB Node2_3_EB"/>
    </vehicle>
    <vehicle id="45" type="passenger" depart="7.77" departPos="113.77" arrivalPos="44.27">
        <route edges="E13 Node1_2_EB Node2_5_SB -E11 -E10 Node2_3_WB"/>
    </vehicle>
    <vehicle id="46" type="passenger" depart="7.86" departPos="88.35" arrivalPos="20.59">
        <route edges="-E18 E11 E12"/>
    </vehicle>
    <vehicle id="47" type="passenger" depart="8.13" departPos="13.66" arrivalPos="34.64">
        <route edges="E12 E13 Node1_2_EB Node2_3_EB E10 E19 E21 E22 -E18"/>
    </vehicle>
    <vehicle id="48" type="passenger" depart="8.25" departPos="43.37" arrivalPos="61.94">
        <route edges="-E15 Node2_3_WB Node1_2_WB"/>
    </vehicle>
    <vehicle id="49" type="passenger" depart="8.25" departPos="114.39" arrivalPos="109.29">
        <route edges="-E3 -E2 -E1 -E12 -E11 E18 -E22"/>
    </vehicle>
    <vehicle id="50" type="passenger" depart="8.74" departPos="47.60" arrivalPos="20.39">
        <route edges="-E22 -E21 -E19 E11 E12 E13"/>
    </vehicle>
    <vehicle id="51" type="passenger" depart="8.88" departPos="51.42" arrivalPos="73.86">
        <route edges="E16 E17 -E14 E10 E18 -E22"/>
    </vehicle>
    <vehicle id="52" type="passenger" depart="9.74" departPos="6.09" arrivalPos="44.20">
        <route edges="E22 -E18 -E10 E14 -E17 -E16 -E15"/>
    </vehicle>
    <vehicle id="53" type="passenger" depart="9.92" departPos="92.65" arrivalPos="1.60">
        <route edges="-E24 Node1_2_EB Node2_3_EB E10 E19 E21 E22"/>
    </vehicle>
    <vehicle id="54" type="passenger" depart="10.32" departPos="75.47" arrivalPos="30.85">
        <route edges="Node2_3_WB Node1_2_WB E23 -E29 -E25 -E24"/>
    </vehicle>
    <vehicle id="55" type="passenger" depart="10.35" departPos="18.19" arrivalPos="73.37">
        <route edges="E14 -E17 -E16 -E15 E10 E11 Node2_5_NB Node2_3_EB E15 E16 E17"/>
    </vehicle>
    <vehicle id="56" type="passenger" depart="10.39" departPos="57.54" arrivalPos="69.30">
        <route edges="E10 E11 Node2_5_NB Node1_2_WB -E13"/>
    </vehicle>
    <vehicle id="57" type="passenger" depart="10.50" departPos="83.38" arrivalPos="1.99">
        <route edges="-E13 -E12 -E11 E18 -E22"/>
    </vehicle>
    <vehicle id="58" type="passenger" depart="10.60" departPos="117.89" arrivalPos="86.54">
        <route edges="Node2_7_SB Node2_5_SB -E11 E18 -E22 -E21 -E19"/>
    </vehicle>
    <vehicle id="59" type="passenger" depart="10.75" departPos="49.08" arrivalPos="117.88">
        <route edges="-E15 E10 E18 -E22"/>
    </vehicle>
    <vehicle id="60" type="passenger" depart="11.13" departPos="5.25" arrivalPos="34.61">
        <route edges="-E2 -E1 -E12 -E11"/>
    </vehicle>
    <vehicle id="61" type="passenger" depart="11.52" departPos="37.75" arrivalPos="106.88">
        <route edges="-E12 Node2_5_NB Node1_2_WB -E13 E0"/>
    </vehicle>
    <vehicle id="62" type="passenger" depart="11.69" departPos="63.62" arrivalPos="109.10">
        <route edges="E18 -E22 -E21 -E19 -E10 E15 E16"/>
    </vehicle>
    <vehicle id="63" type="passenger" depart="11.76" departPos="50.49" arrivalPos="53.07">
        <route edges="E18 -E22 -E21 -E19 -E10 Node2_3_WB Node1_2_WB E24"/>
    </vehicle>
    <vehicle id="64" type="passenger" depart="11.80" departPos="6.03" arrivalPos="119.15">
        <route edges="E13 Node1_2_EB Node2_5_SB E12 E1 E2"/>
    </vehicle>
    <vehicle id="65" type="passenger" depart="11.86" departPos="44.43" arrivalPos="112.64">
        <route edges="-E13 -E12 -E11 -E10 E14 -E17 -E16 -E15"/>
    </vehicle>
    <vehicle id="66" type="passenger" depart="12.07" departPos="49.42" arrivalPos="14.97">
        <route edges="-E15 E10"/>
    </vehicle>
    <vehicle id="67" type="passenger" depart="12.38" departPos="63.97" arrivalPos="30.78">
        <route edges="-E0 -E12 Node2_5_NB"/>
    </vehicle>
    <vehicle id="68" type="passenger" depart="12.44" departPos="58.05" arrivalPos="88.46">
        <route edges="E17 -E14 E10 E11 E12"/>
    </vehicle>
    <vehicle id="69" type="passenger" depart="12.53" departPos="71.01" arrivalPos="1.44">
        <route edges="E22 -E18 E11 Node2_5_NB Node2_3_EB E10 E18 -E22 -E21 -E19"/>
    </vehicle>
    <vehicle id="70" type="passenger" depart="12.66" departPos="78.09" arrivalPos="0.95">
        <route edges="E22 -E18 E11 E12 E13 E23"/>
    </vehicle>
    <vehicle id="71" type="passenger" depart="12.90" departPos="53.85" arrivalPos="19.87">
        <route edges="E29 -E23 Node1_2_EB Node2_3_EB E15"/>
    </vehicle>
    <vehicle id="72" type="passenger" depart="13.23" departPos="63.00" arrivalPos="35.01">
        <route edges="-E18 E11 E12 E0 -E3 -E2 -E1"/>
    </vehicle>
    <vehicle id="73" type="passenger" depart="13.24" departPos="14.10" arrivalPos="11.65">
        <route edges="Node1_2_EB Node2_5_SB E12 E0 -E3 -E2"/>
    </vehicle>
    <vehicle id="74" type="passenger" depart="13.36" departPos="90.48" arrivalPos="23.53">
        <route edges="-E1 E13 Node1_2_EB Node2_3_EB E15 E16 E17 -E14"/>
    </vehicle>
    <vehicle id="75" type="passenger" depart="14.38" departPos="6.30" arrivalPos="14.83">
        <route edges="E2 E3 -E0 E13 Node1_2_EB"/>
    </vehicle>
    <vehicle id="76" type="passenger" depart="14.43" departPos="13.40" arrivalPos="25.46">
        <route edges="-E29 -E25 -E24 Node1_2_EB Node2_3_EB E15 E16 E17"/>
    </vehicle>
    <vehicle id="77" type="passenger" depart="14.57" departPos="102.57" arrivalPos="107.56">
        <route edges="E25 E29 -E23 Node1_2_EB Node2_3_EB"/>
    </vehicle>
    <vehicle id="78" type="passenger" depart="14.59" departPos="25.59" arrivalPos="112.82">
        <route edges="-E23 Node1_2_EB Node2_3_EB E15"/>
    </vehicle>
    <vehicle id="79" type="passenger" depart="14.71" departPos="38.55" arrivalPos="11.89">
        <route edges="Node2_7_SB Node2_3_EB E10 E11"/>
    </vehicle>
    <vehicle id="80" type="passenger" depart="14.94" departPos="29.39" arrivalPos="61.33">
        <route edges="-E3 -E2 -E1 E13 Node1_2_EB Node2_5_SB E12 E1 E2"/>
    </vehicle>
    <vehicle id="81" type="passenger" depart="15.93" departPos="56.16" arrivalPos="104.84">
        <route edges="E18 -E22 -E21 -E19 E11 Node2_5_NB Node2_3_EB E10 E19 E21 E22"/>
    </vehicle>
    <vehicle id="82" type="passenger" depart="16.03" departPos="83.33" arrivalPos="56.55">
        <route edges="-E16 -E15 E10 E19 E21 E22"/>
    </vehicle>
    <vehicle id="83" type="passenger" depart="16.66" departPos="10.31" arrivalPos="86.49">
        <route edges="-E10 Node2_3_WB Node1_2_WB -E13 E0 -E3 -E2 -E1"/>
    </vehicle>
    <vehicle id="84" type="passenger" depart="16.71" departPos="59.79" arrivalPos="96.24">
        <route edges="-E13 E1 E2 E3 -E0"/>
    </vehicle>
    <vehicle id="85" type="passenger" depart="17.09" departPos="99.29" arrivalPos="89.37">
        <route edges="-E17 -E16 -E15 Node2_3_WB Node1_2_WB -E13 E0 -E3 -E2"/>
    </vehicle>
    <vehicle id="86" type="passenger" depart="17.22" departPos="70.08" arrivalPos="6.07">
        <route edges="E14 -E17 -E16 -E15 E10 E19 E21"/>
    </vehicle>
    <vehicle id="87" type="passenger" depart="17.34" departPos="86.21" arrivalPos="113.62">
        <route edges="Node1_2_WB -E13 -E12 -E11 E18 -E22"/>
    </vehicle>
    <vehicle id="88" type="passenger" depart="17.48" departPos="60.81" arrivalPos="118.05">
        <route edges="-E29 -E25 -E24 -E13 E1 E2 E3"/>
    </vehicle>
    <vehicle id="89" type="passenger" depart="17.75" departPos="79.93" arrivalPos="42.87">
        <route edges="-E21 -E19 -E10 Node2_3_WB Node1_2_WB -E13"/>
    </vehicle>
    <vehicle id="90" type="passenger" depart="17.90" departPos="112.82" arrivalPos="76.71">
        <route edges="-E22 -E21 -E19 -E10 Node2_3_WB Node1_2_WB E24 E25 E29"/>
    </vehicle>
    <vehicle id="91" type="passenger" depart="18.19" departPos="43.65" arrivalPos="100.68">
        <route edges="-E15 E10 E11 Node2_5_NB Node2_3_EB E15"/>
    </vehicle>
    <vehicle id="92" type="passenger" depart="18.22" departPos="72.87" arrivalPos="75.59">
        <route edges="-E12 -E11 -E10 Node2_3_WB Node2_5_SB"/>
    </vehicle>
    <vehicle id="93" type="passenger" depart="18.22" departPos="93.07" arrivalPos="25.75">
        <route edges="Node2_3_EB E15 E16 E17 -E14"/>
    </vehicle>
    <vehicle id="94" type="passenger" depart="18.30" departPos="62.04" arrivalPos="0.40">
        <route edges="E19 E21 E22 -E18 E11 E12 E1 E2 E3 -E0"/>
    </vehicle>
    <vehicle id="95" type="passenger" depart="18.78" departPos="26.28" arrivalPos="22.53">
        <route edges="E22 -E18 E11 Node2_5_NB Node2_3_EB E10 E18"/>
    </vehicle>
    <vehicle id="96" type="passenger" depart="18.93" departPos="109.55" arrivalPos="85.81">
        <route edges="E25 E29 -E23 -E13 E0 -E3 -E2 -E1"/>
    </vehicle>
    <vehicle id="97" type="passenger" depart="19.02" departPos="20.24" arrivalPos="25.66">
        <route edges="Node1_2_EB Node2_5_SB E12 E13 E23 -E29"/>
    </vehicle>
    <vehicle id="98" type="passenger" depart="19.05" departPos="106.95" arrivalPos="6.98">
        <route edges="E11 Node2_5_NB Node2_3_EB E14 -E17 -E16"/>
    </vehicle>
    <vehicle id="99" type="passenger" depart="19.25" departPos="19.08" arrivalPos="13.48">
        <route edges="-E14 E10 E11 E12 E1 E2 E3"/>
    </vehicle>
    <vehicle id="100" type="passenger" depart="19.62" departPos="35.76" arrivalPos="35.39">
        <route edges="Node1_2_EB Node2_5_SB E12 E1 E2"/>
    </vehicle>
    <vehicle id="101" type="passenger" depart="19.83" departPos="18.36" arrivalPos="105.70">
        <route edges="-E23 -E13 E0 -E3 -E2"/>
    </vehicle>
    <vehicle id="102" type="passenger" depart="20.18" departPos="16.99" arrivalPos="11.89">
        <route edges="-E16 -E15 E10 E19 E21 E22"/>
    </vehicle>
    <vehicle id="103" type="passenger" depart="20.36" departPos="73.94" arrivalPos="115.10">
        <route edges="-E21 -E19 -E10 E14 -E17 -E16 -E15"/>
    </vehicle>
    <vehicle id="104" type="passenger" depart="20.41" departPos="64.74" arrivalPos="23.56">
        <route edges="-E15 Node2_3_WB Node1_2_WB E23"/>
    </vehicle>
    <vehicle id="105" type="passenger" depart="20.43" departPos="15.96" arrivalPos="34.21">
        <route edges="-E11 -E10 Node2_3_WB Node2_5_SB"/>
    </vehicle>
    <vehicle id="106" type="passenger" depart="20.59" departPos="99.25" arrivalPos="57.06">
        <route edges="-E25 -E24 Node1_2_EB Node2_5_SB E12 E13"/>
    </vehicle>
    <vehicle id="107" type="passenger" depart="20.62" departPos="78.09" arrivalPos="40.51">
        <route edges="E29 -E23 Node1_2_EB Node2_3_EB E10 E11"/>
    </vehicle>
    <vehicle id="108" type="passenger" depart="20.85" departPos="57.43" arrivalPos="12.14">
        <route edges="-E2 -E1 -E12 -E11 E19 E21 E22 -E18"/>
    </vehicle>
    <vehicle id="109" type="passenger" depart="21.65" departPos="28.18" arrivalPos="50.42">
        <route edges="E12 E13 Node1_2_EB Node2_3_EB E10 E11 Node2_5_NB"/>
    </vehicle>
    <vehicle id="110" type="passenger" depart="21.82" departPos="11.84" arrivalPos="35.97">
        <route edges="E19"/>
    </vehicle>
    <vehicle id="111" type="passenger" depart="21.82" departPos="110.02" arrivalPos="8.54">
        <route edges="-E13 -E12 Node2_5_NB Node1_2_WB E24 E25 E29"/>
    </vehicle>
    <vehicle id="112" type="passenger" depart="21.96" departPos="18.38" arrivalPos="28.91">
        <route edges="E23 -E29 -E25 -E24 Node1_2_EB Node2_5_SB"/>
    </vehicle>
    <vehicle id="113" type="passenger" depart="21.97" departPos="56.48" arrivalPos="96.07">
        <route edges="-E23 -E13 E1 E2 E3"/>
    </vehicle>
    <vehicle id="114" type="passenger" depart="22.01" departPos="84.77" arrivalPos="108.21">
        <route edges="Node2_5_SB E12 E0"/>
    </vehicle>
    <vehicle id="115" type="passenger" depart="22.16" departPos="114.49" arrivalPos="38.31">
        <route edges="E17 -E14 E10 E19 E21"/>
    </vehicle>
    <vehicle id="116" type="passenger" depart="22.57" departPos="110.65" arrivalPos="13.61">
        <route edges="Node2_7_SB Node2_5_SB -E11 -E10"/>
    </vehicle>
    <vehicle id="117" type="passenger" depart="22.57" departPos="90.33" arrivalPos="57.72">
        <route edges="Node2_3_WB Node1_2_WB"/>
    </vehicle>
    <vehicle id="118" type="passenger" depart="22.60" departPos="37.30" arrivalPos="36.07">
        <route edges="-E23 Node1_2_EB Node2_3_EB E10 E19 E21"/>
    </vehicle>
    <vehicle id="119" type="passenger" depart="22.83" departPos="109.86" arrivalPos="18.37">
        <route edges="-E1 E13 Node1_2_EB Node2_3_EB E15 E16 E17 -E14"/>
    </vehicle>
    <vehicle id="120" type="passenger" depart="22.89" departPos="114.81" arrivalPos="46.84">
        <route edges="E15 E16 E17 -E14 Node2_3_WB Node1_2_WB -E13 -E12"/>
    </vehicle>
    <vehicle id="121" type="passenger" depart="23.12" departPos="85.38" arrivalPos="96.81">
        <route edges="E3 -E0 E13 Node1_2_EB Node2_5_SB E12 E0 -E3"/>
    </vehicle>
    <vehicle id="122" type="passenger" depart="23.26" departPos="46.94" arrivalPos="17.26">
        <route edges="E18 -E22 -E21 -E19 E11 Node2_5_NB Node2_3_EB E10 E19 E21 E22 -E18"/>
    </vehicle>
    <vehicle id="123" type="passenger" depart="23.37" departPos="4.78" arrivalPos="116.43">
        <route edges="-E1 E13 Node1_2_EB Node2_5_SB E12 E1"/>
    </vehicle>
    <vehicle id="124" type="passenger" depart="23.52" departPos="92.80" arrivalPos="10.82">
        <route edges="-E22 -E21 -E19 -E10 E14 -E17 -E16 -E15"/>
    </vehicle>
    <vehicle id="125" type="passenger" depart="24.15" departPos="53.11" arrivalPos="17.23">
        <route edges="E21 E22 -E18 E11 Node2_5_NB Node2_3_EB E10 E18 -E22 -E21"/>
    </vehicle>
    <vehicle id="126" type="passenger" depart="24.23" departPos="42.42" arrivalPos="94.70">
        <route edges="-E3 -E2 -E1 E13 E24 E25 E29 -E23"/>
    </vehicle>
    <vehicle id="127" type="passenger" depart="24.48" departPos="100.28" arrivalPos="53.59">
        <route edges="Node1_2_WB -E13 -E12 Node2_5_NB Node2_3_EB E10"/>
    </vehicle>
    <vehicle id="128" type="passenger" depart="24.50" departPos="56.05" arrivalPos="117.68">
        <route edges="-E18 E11 E12 E13 E24 E25"/>
    </vehicle>
    <vehicle id="129" type="passenger" depart="24.56" departPos="83.87" arrivalPos="40.04">
        <route edges="-E16 -E15 Node2_3_WB Node1_2_WB -E13 E1 E2 E3"/>
    </vehicle>
    <vehicle id="130" type="passenger" depart="24.77" departPos="110.37" arrivalPos="95.56">
        <route edges="E11 Node2_5_NB Node2_3_EB"/>
    </vehicle>
    <vehicle id="131" type="passenger" depart="24.93" departPos="64.79" arrivalPos="71.59">
        <route edges="E15 E16 E17 -E14 E10 E11 E12 E1 E2 E3 -E0"/>
    </vehicle>
    <vehicle id="132" type="passenger" depart="25.01" departPos="105.86" arrivalPos="7.40">
        <route edges="-E22 -E21 -E19 -E10 Node2_3_WB"/>
    </vehicle>
    <vehicle id="133" type="passenger" depart="25.14" departPos="98.88" arrivalPos="101.70">
        <route edges="Node1_2_WB E24 E25 E29 -E23"/>
    </vehicle>
    <vehicle id="134" type="passenger" depart="25.26" departPos="60.11" arrivalPos="109.78">
        <route edges="E12"/>
    </vehicle>
    <vehicle id="135" type="passenger" depart="25.52" departPos="52.76" arrivalPos="44.65">
        <route edges="E3 -E0 -E12 -E11 -E10 E15 E16 E17"/>
    </vehicle>
    <vehicle id="136" type="passenger" depart="25.74" departPos="106.33" arrivalPos="88.82">
        <route edges="-E13 -E12 -E11 -E10 Node2_3_WB"/>
    </vehicle>
    <vehicle id="137" type="passenger" depart="25.79" departPos="4.83" arrivalPos="122.12">
        <route edges="Node2_5_NB Node2_3_EB E14 -E17"/>
    </vehicle>
    <vehicle id="138" type="passenger" depart="25.85" departPos="102.61" arrivalPos="84.46">
        <route edges="E15 E16 E17 -E14 Node2_3_WB Node1_2_WB E24"/>
    </vehicle>
    <vehicle id="139" type="passenger" depart="25.93" departPos="61.13" arrivalPos="19.28">
        <route edges="-E12 -E11 E18"/>
    </vehicle>
    <vehicle id="140" type="passenger" depart="26.05" departPos="90.85" arrivalPos="71.97">
        <route edges="-E23 Node1_2_EB Node2_3_EB E14 -E17 -E16 -E15"/>
    </vehicle>
    <vehicle id="141" type="passenger" depart="26.32" departPos="117.39" arrivalPos="75.74">
        <route edges="-E16 -E15 Node2_3_WB Node1_2_WB -E13 E1"/>
    </vehicle>
    <vehicle id="142" type="passenger" depart="26.68" departPos="69.90" arrivalPos="111.05">
        <route edges="-E14 Node2_3_WB Node1_2_WB E24 E25 E29 -E23"/>
    </vehicle>
    <vehicle id="143" type="passenger" depart="26.69" departPos="14.88" arrivalPos="60.28">
        <route edges="E25 E29 -E23 -E13 -E12 -E11"/>
    </vehicle>
    <vehicle id="144" type="passenger" depart="26.69" departPos="55.74" arrivalPos="50.07">
        <route edges="E15 E16 E17 -E14 E10 E19 E21 E22 -E18"/>
    </vehicle>
    <vehicle id="145" type="passenger" depart="26.92" departPos="66.23" arrivalPos="7.42">
        <route edges="E19 E21 E22 -E18 E11 E12 E13 E23 -E29"/>
    </vehicle>
    <vehicle id="146" type="passenger" depart="26.99" departPos="3.07" arrivalPos="19.49">
        <route edges="Node2_3_EB E10 E11 E12 E13 E23 -E29 -E25 -E24"/>
    </vehicle>
    <vehicle id="147" type="passenger" depart="27.47" departPos="16.79" arrivalPos="104.01">
        <route edges="-E21 -E19 -E10 Node2_3_WB"/>
    </vehicle>
    <vehicle id="148" type="passenger" depart="27.56" departPos="7.00" arrivalPos="19.90">
        <route edges="Node2_5_NB Node2_3_EB E14"/>
    </vehicle>
    <vehicle id="149" type="passenger" depart="27.89" departPos="0.85" arrivalPos="111.22">
        <route edges="-E24 -E13"/>
    </vehicle>
    <vehicle id="150" type="passenger" depart="28.17" departPos="74.01" arrivalPos="82.23">
        <route edges="-E12 Node2_5_NB Node2_3_EB E10 E11 E12 E13 Node1_2_EB"/>
    </vehicle>
    <vehicle id="151" type="passenger" depart="28.22" departPos="22.79" arrivalPos="0.71">
        <route edges="-E13 -E12 -E11 -E10 Node2_3_WB Node2_5_SB"/>
    </vehicle>
    <vehicle id="152" type="passenger" depart="28.23" departPos="41.75" arrivalPos="30.01">
        <route edges="E1 E2 E3 -E0 -E12 -E11 -E10 E14 -E17"/>
    </vehicle>
    <vehicle id="153" type="passenger" depart="28.24" departPos="95.61" arrivalPos="87.87">
        <route edges="-E0 E13 E24 E25 E29"/>
    </vehicle>
    <vehicle id="154" type="passenger" depart="28.24" departPos="106.40" arrivalPos="105.30">
        <route edges="-E24 Node1_2_EB Node2_5_SB E12 E13 E24 E25 E29"/>
    </vehicle>
    <vehicle id="155" type="passenger" depart="28.29" departPos="107.72" arrivalPos="99.43">
        <route edges="E25 E29 -E23 Node1_2_EB Node2_3_EB E15 E16 E17 -E14"/>
    </vehicle>
    <vehicle id="156" type="passenger" depart="28.32" departPos="48.25" arrivalPos="116.70">
        <route edges="-E17 -E16 -E15 Node2_3_WB Node1_2_WB E24 E25 E29"/>
    </vehicle>
    <vehicle id="157" type="passenger" depart="28.36" departPos="12.15" arrivalPos="30.99">
        <route edges="-E19 -E10 Node2_3_WB Node1_2_WB -E13"/>
    </vehicle>
    <vehicle id="158" type="passenger" depart="28.58" departPos="39.74" arrivalPos="14.88">
        <route edges="E10 E11 E12 E0 -E3 -E2"/>
    </vehicle>
    <vehicle id="159" type="passenger" depart="28.81" departPos="76.51" arrivalPos="49.66">
        <route edges="E29 -E23 -E13 -E12 Node2_5_NB"/>
    </vehicle>
    <vehicle id="160" type="passenger" depart="29.33" departPos="60.54" arrivalPos="78.51">
        <route edges="E2 E3 -E0 E13 Node1_2_EB Node2_5_SB E12 E0 -E3 -E2 -E1"/>
    </vehicle>
    <vehicle id="161" type="passenger" depart="29.37" departPos="27.93" arrivalPos="60.47">
        <route edges="-E17 -E16 -E15 E10 E19"/>
    </vehicle>
    <vehicle id="162" type="passenger" depart="30.10" departPos="96.97" arrivalPos="69.85">
        <route edges="-E14 E10 E19 E21 E22 -E18"/>
    </vehicle>
    <vehicle id="163" type="passenger" depart="30.45" departPos="46.11" arrivalPos="38.78">
        <route edges="E11 E12 E0 -E3 -E2"/>
    </vehicle>
    <vehicle id="164" type="passenger" depart="31.18" departPos="65.11" arrivalPos="32.73">
        <route edges="E22 -E18 -E10 E15"/>
    </vehicle>
    <vehicle id="165" type="passenger" depart="31.51" departPos="111.22" arrivalPos="61.02">
        <route edges="E10 E11 Node2_5_NB Node2_3_EB E14 -E17"/>
    </vehicle>
    <vehicle id="166" type="passenger" depart="32.27" departPos="71.74" arrivalPos="11.75">
        <route edges="-E23 Node1_2_EB"/>
    </vehicle>
    <vehicle id="167" type="passenger" depart="32.75" departPos="84.02" arrivalPos="0.08">
        <route edges="-E21 -E19 -E10 E15 E16 E17"/>
    </vehicle>
    <vehicle id="168" type="passenger" depart="32.92" departPos="53.43" arrivalPos="23.05">
        <route edges="E2 E3 -E0 -E12 -E11 -E10"/>
    </vehicle>
    <vehicle id="169" type="passenger" depart="33.40" departPos="94.46" arrivalPos="25.79">
        <route edges="E0 -E3 -E2 -E1 E13 Node1_2_EB Node2_5_SB E12"/>
    </vehicle>
    <vehicle id="170" type="passenger" depart="33.52" departPos="40.37" arrivalPos="31.98">
        <route edges="-E25 -E24 -E13 -E12 -E11 -E10"/>