<?xml version="1.0" encoding="UTF-8"?>

<additional xmlns:xsi="http://www.w3.org/2001/XMLSchema-instance" xsi:noNamespaceSchemaLocation="http://sumo.dlr.de/xsd/additional_file.xsd">
    <!-- Node1 detectors -->
    <laneAreaDetector id="Node1_2_WB_0" lane="Node1_2_WB_0" pos="94.22" length="10.00" period="60.00" file="e2_node1.xml"/>
    <laneAreaDetector id="Node1_2_WB_1" lane="Node1_2_WB_1" pos="94.22" length="10.00" period="60.00" file="e2_node1.xml"/>
    <laneAreaDetector id="Node1_2_WB_2" lane="Node1_2_WB_2" pos="94.22" length="10.00" period="60.00" file="e2_node1.xml"/>
    <laneAreaDetector id="E13_0" lane="E13_0" pos="94.22" length="10.00" period="60.00" file="e2_node1.xml"/>
    <laneAreaDetector id="E13_1" lane="E13_1" pos="94.22" length="10.00" period="60.00" file="e2_node1.xml"/>
    <laneAreaDetector id="E13_2" lane="E13_2" pos="94.22" length="10.00" period="60.00" file="e2_node1.xml"/>
    <laneAreaDetector id="-E24_0" lane="-E24_0" pos="98.22" length="10.00" period="60.00" file="e2_node1.xml"/>
    <laneAreaDetector id="-E24_1" lane="-E24_1" pos="98.22" length="10.00" period="60.00" file="e2_node1.xml"/>
    <laneAreaDetector id="-E24_2" lane="-E24_2" pos="98.22" length="10.00" period="60.00" file="e2_node1.xml"/>
    <laneAreaDetector id="-E23_0" lane="-E23_0" pos="98.22" length="10.00" period="60.00" file="e2_node1.xml"/>
    <laneAreaDetector id="-E23_1" lane="-E23_1" pos="98.22" length="10.00" period="60.00" file="e2_node1.xml"/>
    <laneAreaDetector id="-E23_2" lane="-E23_2" pos="98.22" length="10.00" period="60.00" file="e2_node1.xml"/>

    <!-- Node2 detectors -->
    <laneAreaDetector id="Node2_3_WB_0" lane="Node2_3_WB_0" pos="94.22" length="10.00" period="60.00" file="e2_node2.xml"/>
    <laneAreaDetector id="Node2_3_WB_1" lane="Node2_3_WB_1" pos="94.22" length="10.00" period="60.00" file="e2_node2.xml"/>
    <laneAreaDetector id="Node2_3_WB_2" lane="Node2_3_WB_2" pos="94.22" length="10.00" period="60.00" file="e2_node2.xml"/>
    <laneAreaDetector id="Node2_5_NB_0" lane="Node2_5_NB_0" pos="94.22" length="10.00" period="60.00" file="e2_node2.xml"/>
    <laneAreaDetector id="Node2_5_NB_1" lane="Node2_5_NB_1" pos="94.22" length="10.00" period="60.00" file="e2_node2.xml"/>
    <laneAreaDetector id="Node2_5_NB_2" lane="Node2_5_NB_2" pos="94.22" length="10.00" period="60.00" file="e2_node2.xml"/>
    <laneAreaDetector id="Node1_2_EB_0" lane="Node1_2_EB_0" pos="94.22" length="10.00" period="60.00" file="e2_node2.xml"/>
    <laneAreaDetector id="Node1_2_EB_1" lane="Node1_2_EB_1" pos="94.22" length="10.00" period="60.00" file="e2_node2.xml"/>
    <laneAreaDetector id="Node1_2_EB_2" lane="Node1_2_EB_2" pos="94.22" length="10.00" period="60.00" file="e2_node2.xml"/>
    <laneAreaDetector id="Node2_7_SB_0" lane="Node2_7_SB_0" pos="107.82" length="10.00" period="60.00" file="e2_node2.xml"/>
    <laneAreaDetector id="Node2_7_SB_1" lane="Node2_7_SB_1" pos="107.82" length="10.00" period="60.00" file="e2_node2.xml"/>
    <laneAreaDetector id="Node2_7_SB_2" lane="Node2_7_SB_2" pos="107.82" length="10.00" period="60.00" file="e2_node2.xml"/>

    <!-- Node3 detectors -->
    <laneAreaDetector id="-E15_0" lane="-E15_0" pos="98.22" length="10.00" period="60.00" file="e2_node3.xml"/>
    <laneAreaDetector id="-E15_1" lane="-E15_1" pos="98.22" length="10.00" period="60.00" file="e2_node3.xml"/>
    <laneAreaDetector id="-E15_2" lane="-E15_2" pos="98.22" length="10.00" period="60.00" file="e2_node3.xml"/>
    <laneAreaDetector id="-E10_0" lane="-E10_0" pos="94.22" length="10.00" period="60.00" file="e2_node3.xml"/>
    <laneAreaDetector id="-E10_1" lane="-E10_1" pos="94.22" length="10.00" period="60.00" file="e2_node3.xml"/>
    <laneAreaDetector id="-E10_2" lane="-E10_2" pos="94.22" length="10.00" period="60.00" file="e2_node3.xml"/>
    <laneAreaDetector id="Node2_3_EB_0" lane="Node2_3_EB_0" pos="94.22" length="10.00" period="60.00" file="e2_node3.xml"/>
    <laneAreaDetector id="Node2_3_EB_1" lane="Node2_3_EB_1" pos="94.22" length="10.00" period="60.00" file="e2_node3.xml"/>
    <laneAreaDetector id="Node2_3_EB_2" lane="Node2_3_EB_2" pos="94.22" length="10.00" period="60.00" file="e2_node3.xml"/>
    <laneAreaDetector id="-E14_0" lane="-E14_0" pos="98.22" length="10.00" period="60.00" file="e2_node3.xml"/>
    <laneAreaDetector id="-E14_1" lane="-E14_1" pos="98.22" length="10.00" period="60.00" file="e2_node3.xml"/>
    <laneAreaDetector id="-E14_2" lane="-E14_2" pos="98.22" length="10.00" period="60.00" file="e2_node3.xml"/>

    <!-- Node4 detectors -->
    <laneAreaDetector id="E12_0" lane="E12_0" pos="94.22" length="10.00" period="60.00" file="e2_node4.xml"/>
    <laneAreaDetector id="E12_1" lane="E12_1" pos="94.22" length="10.00" period="60.00" file="e2_node4.xml"/>
    <laneAreaDetector id="E12_2" lane="E12_2" pos="94.22" length="10.00" period="60.00" file="e2_node4.xml"/>
    <laneAreaDetector id="-E1_0" lane="-E1_0" pos="98.22" length="10.00" period="60.00" file="e2_node4.xml"/>
    <laneAreaDetector id="-E1_1" lane="-E1_1" pos="98.22" length="10.00" period="60.00" file="e2_node4.xml"/>
    <laneAreaDetector id="-E1_2" lane="-E1_2" pos="98.22" length="10.00" period="60.00" file="e2_node4.xml"/>
    <laneAreaDetector id="-E0_0" lane="-E0_0" pos="98.22" length="10.00" period="60.00" file="e2_node4.xml"/>
    <laneAreaDetector id="-E0_1" lane="-E0_1" pos="98.22" length="10.00" period="60.00" file="e2_node4.xml"/>
    <laneAreaDetector id="-E0_2" lane="-E0_2" pos="98.22" length="10.00" period="60.00" file="e2_node4.xml"/>
    <laneAreaDetector id="-E13_0" lane="-E13_0" pos="94.22" length="10.00" period="60.00" file="e2_node4.xml"/>
    <laneAreaDetector id="-E13_1" lane="-E13_1" pos="94.22" length="10.00" period="60.00" file="e2_node4.xml"/>
    <laneAreaDetector id="-E13_2" lane="-E13_2" pos="94.22" length="10.00" period="60.00" file="e2_node4.xml"/>

    <!-- Node6 detectors -->
    <laneAreaDetector id="-E18_0" lane="-E18_0" pos="98.22" length="10.00" period="60.00" file="e2_node6.xml"/>
    <laneAreaDetector id="-E18_1" lane="-E18_1" pos="98.22" length="10.00" period="60.00" file="e2_node6.xml"/>
    <laneAreaDetector id="-E18_2" lane="-E18_2" pos="98.22" length="10.00" period="60.00" file="e2_node6.xml"/>
    <laneAreaDetector id="-E19_0" lane="-E19_0" pos="98.22" length="10.00" period="60.00" file="e2_node6.xml"/>
    <laneAreaDetector id="-E19_1" lane="-E19_1" pos="98.22" length="10.00" period="60.00" file="e2_node6.xml"/>
    <laneAreaDetector id="-E19_2" lane="-E19_2" pos="98.22" length="10.00" period="60.00" file="e2_node6.xml"/>
    <laneAreaDetector id="-E11_0" lane="-E11_0" pos="94.22" length="10.00" period="60.00" file="e2_node6.xml"/>
    <laneAreaDetector id="-E11_1" lane="-E11_1" pos="94.22" length="10.00" period="60.00" file="e2_node6.xml"/>
    <laneAreaDetector id="-E11_2" lane="-E11_2" pos="94.22" length="10.00" period="60.00" file="e2_node6.xml"/>
    <laneAreaDetector id="E10_0" lane="E10_0" pos="94.22" length="10.00" period="60.00" file="e2_node6.xml"/>
    <laneAreaDetector id="E10_1" lane="E10_1" pos="94.22" length="10.00" period="60.00" file="e2_node6.xml"/>
    <laneAreaDetector id="E10_2" lane="E10_2" pos="94.22" length="10.00" period="60.00" file="e2_node6.xml"/>
</additional>
