<?xml version="1.0" encoding="UTF-8"?>

<!-- generated on 2026-02-11T15:51:58.220213+04:00 by Eclipse SUMO netedit 1.25.0
-->

<routes xmlns:xsi="http://www.w3.org/2001/XMLSchema-instance" xsi:noNamespaceSchemaLocation="http://sumo.dlr.de/xsd/routes_file.xsd">
    <!-- Vehicles, persons and containers (sorted by depart) -->
    <flow id="f_0" begin="0.00" end="3600.00" perHour="1800.00" from="-E12" to="Node1_2_WB" via="-E11 -E10 Node2_3_WB"/>
    <flow id="f_1" begin="0.00" end="3600.00" perHour="1800.00" from="Node2_7_SB" to="E13" via="Node2_5_SB E12"/>
    <flow id="f_2" begin="0.00" end="3600.00" perHour="1800.00" from="Node1_2_EB" to="E12" via="Node2_3_EB E10 E11"/>
</routes>
