<?xml version="1.0" encoding="UTF-8"?>

<!-- generated on 2026-03-05T00:20:14.745707+04:00 by Eclipse SUMO netedit 1.25.0
<neteditConfiguration xmlns:xsi="http://www.w3.org/2001/XMLSchema-instance" xsi:noNamespaceSchemaLocation="http://sumo.dlr.de/xsd/neteditConfiguration.xsd">

    <input>
        <sumocfg-file value="C:\Users\Edawi\OneDrive\Desktop\work\Map2\RL.sumocfg"/>
        <additional-files value="C:\Users\Edawi\OneDrive\Desktop\work\Map2\RL.add.xml"/>
        <sumo-net-file value="C:\Users\Edawi\OneDrive\Desktop\work\Map2\RL.net.xml"/>
    </input>

    <output>
        <output-file value="C:\Users\Edawi\OneDrive\Desktop\work\Map2\RL.net.xml"/>
    </output>

    <processing>
        <geometry.min-radius.fix.railways value="false"/>
        <geometry.avoid-overlap value="false"/>
        <geometry.max-grade.fix value="false"/>
        <offset.disable-normalization value="true"/>
        <lefthand value="0"/>
    </processing>

    <junctions>
        <no-turnarounds value="true"/>
        <junctions.corner-detail value="5"/>
        <junctions.limit-turn-speed value="5.50"/>
        <rectangular-lane-cut value="0"/>
    </junctions>

    <pedestrian>
        <walkingareas value="0"/>
    </pedestrian>

    <netedit>
        <ignore.routeelements value="false"/>
    </netedit>

</neteditConfiguration>
-->

<net version="1.20" junctionCornerDetail="5" limitTurnSpeed="5.50" avoidOverlap="0" xmlns:xsi="http://www.w3.org/2001/XMLSchema-instance" xsi:noNamespaceSchemaLocation="http://sumo.dlr.de/xsd/net_file.xsd">

    <location netOffset="0.00,0.00" convBoundary="0.00,100.00,200.00,300.00" origBoundary="-10000000000.00,-10000000000.00,10000000000.00,10000000000.00" projParameter="!"/>

    <edge id=":Node1_0" function="internal">
        <lane id=":Node1_0_0" index="0" speed="13.89" length="27.20" shape="-8.00,213.60 -8.00,186.40"/>
        <lane id=":Node1_0_1" index="1" speed="13.89" length="27.20" shape="-4.80,213.60 -4.80,186.40"/>
        <lane id=":Node1_0_2" index="2" speed="13.89" length="27.20" shape="-1.60,213.60 -1.60,186.40"/>
    </edge>
    <edge id=":Node1_3" function="internal">
        <lane id=":Node1_3_0" index="0" speed="10.88" length="6.03" shape="-1.60,213.60 -0.89,207.62"/>
        <lane id=":Node1_3_1" index="1" speed="10.36" length="5.01" shape="-1.60,213.60 -0.89,208.64"/>
    </edge>
    <edge id=":Node1_12" function="internal">
        <lane id=":Node1_12_0" index="0" speed="10.88" length="21.12" shape="-0.89,207.62 -0.65,205.55 2.20,199.80 6.95,196.35 13.60,195.20"/>
        <lane id=":Node1_12_1" index="0" speed="10.36" length="19.50" shape="-0.89,208.64 -0.65,206.95 2.20,202.20 6.95,199.35 13.60,198.40"/>
    </edge>
    <edge id=":Node1_5" function="internal">
        <lane id=":Node1_5_0" index="0" speed="6.51" length="9.03" shape="13.60,208.00 11.15,208.35 9.40,209.40 8.35,211.15 8.00,213.60"/>
    </edge>
    <edge id=":Node1_6" function="internal">
        <lane id=":Node1_6_0" index="0" speed="11.36" length="29.67" shape="13.60,204.80 5.55,203.65 -0.20,200.20 -3.65,194.45 -4.80,186.40"/>
        <lane id=":Node1_6_1" index="1" speed="10.36" length="24.51" shape="13.60,201.60 6.95,200.65 2.20,197.80 -0.65,193.05 -1.60,186.40"/>
    </edge>
    <edge id=":Node1_8" function="internal">
        <lane id=":Node1_8_0" index="0" speed="6.51" length="9.03" shape="8.00,186.40 8.35,188.85 9.40,190.60 11.15,191.65 13.60,192.00"/>
    </edge>
    <edge id=":Node1_9" function="internal">
        <lane id=":Node1_9_0" index="0" speed="13.89" length="27.20" shape="8.00,186.40 8.00,213.60"/>
        <lane id=":Node1_9_1" index="1" speed="13.89" length="27.20" shape="4.80,186.40 4.80,213.60"/>
        <lane id=":Node1_9_2" index="2" speed="13.89" length="27.20" shape="1.60,186.40 1.60,213.60"/>
    </edge>
    <edge id=":Node2_0" function="internal">
        <lane id=":Node2_0_0" index="0" speed="6.51" length="9.03" shape="92.00,213.60 91.65,211.15 90.60,209.40 88.85,208.35 86.40,208.00"/>
    </edge>
    <edge id=":Node2_1" function="internal">
        <lane id=":Node2_1_0" index="0" speed="13.89" length="27.20" shape="92.00,213.60 92.00,186.40"/>
        <lane id=":Node2_1_1" index="1" speed="13.89" length="27.20" shape="95.20,213.60 95.20,186.40"/>
        <lane id=":Node2_1_2" index="2" speed="13.89" length="27.20" shape="98.40,213.60 98.40,186.40"/>
    </edge>
    <edge id=":Node2_4" function="internal">
        <lane id=":Node2_4_0" index="0" speed="10.36" length="5.01" shape="98.40,213.60 99.11,208.64"/>
    </edge>
    <edge id=":Node2_20" function="internal">
        <lane id=":Node2_20_0" index="0" speed="10.36" length="19.50" shape="99.11,208.64 99.35,206.95 102.20,202.20 106.95,199.35 113.60,198.40"/>
    </edge>
    <edge id=":Node2_5" function="internal">
        <lane id=":Node2_5_0" index="0" speed="6.51" length="9.03" shape="113.60,208.00 111.15,208.35 109.40,209.40 108.35,211.15 108.00,213.60"/>
    </edge>
    <edge id=":Node2_6" function="internal">
        <lane id=":Node2_6_0" index="0" speed="13.89" length="27.20" shape="113.60,208.00 86.40,208.00"/>
        <lane id=":Node2_6_1" index="1" speed="13.89" length="27.20" shape="113.60,204.80 86.40,204.80"/>
        <lane id=":Node2_6_2" index="2" speed="13.89" length="27.20" shape="113.60,201.60 86.40,201.60"/>
    </edge>
    <edge id=":Node2_9" function="internal">
        <lane id=":Node2_9_0" index="0" speed="10.36" length="5.01" shape="113.60,201.60 108.64,200.89"/>
    </edge>
    <edge id=":Node2_21" function="internal">
        <lane id=":Node2_21_0" index="0" speed="10.36" length="19.50" shape="108.64,200.89 106.95,200.65 102.20,197.80 99.35,193.05 98.40,186.40"/>
    </edge>
    <edge id=":Node2_10" function="internal">
        <lane id=":Node2_10_0" index="0" speed="6.51" length="9.03" shape="108.00,186.40 108.35,188.85 109.40,190.60 111.15,191.65 113.60,192.00"/>
    </edge>
    <edge id=":Node2_11" function="internal">
        <lane id=":Node2_11_0" index="0" speed="13.89" length="27.20" shape="108.00,186.40 108.00,213.60"/>
        <lane id=":Node2_11_1" index="1" speed="13.89" length="27.20" shape="104.80,186.40 104.80,213.60"/>
        <lane id=":Node2_11_2" index="2" speed="13.89" length="27.20" shape="101.60,186.40 101.60,213.60"/>
    </edge>
    <edge id=":Node2_14" function="internal">
        <lane id=":Node2_14_0" index="0" speed="10.36" length="5.01" shape="101.60,186.40 100.89,191.36"/>
    </edge>
    <edge id=":Node2_22" function="internal">
        <lane id=":Node2_22_0" index="0" speed="10.36" length="19.50" shape="100.89,191.36 100.65,193.05 97.80,197.80 93.05,200.65 86.40,201.60"/>
    </edge>
    <edge id=":Node2_15" function="internal">
        <lane id=":Node2_15_0" index="0" speed="6.51" length="9.03" shape="86.40,192.00 88.85,191.65 90.60,190.60 91.65,188.85 92.00,186.40"/>
    </edge>
    <edge id=":Node2_16" function="internal">
        <lane id=":Node2_16_0" index="0" speed="13.89" length="27.20" shape="86.40,192.00 113.60,192.00"/>
        <lane id=":Node2_16_1" index="1" speed="13.89" length="27.20" shape="86.40,195.20 113.60,195.20"/>
        <lane id=":Node2_16_2" index="2" speed="13.89" length="27.20" shape="86.40,198.40 113.60,198.40"/>
    </edge>
    <edge id=":Node2_19" function="internal">
        <lane id=":Node2_19_0" index="0" speed="10.36" length="5.01" shape="86.40,198.40 91.36,199.11"/>
    </edge>
    <edge id=":Node2_23" function="internal">
        <lane id=":Node2_23_0" index="0" speed="10.36" length="19.50" shape="91.36,199.11 93.05,199.35 97.80,202.20 100.65,206.95 101.60,213.60"/>
    </edge>
    <edge id=":Node3_0" function="internal">
        <lane id=":Node3_0_0" index="0" speed="6.51" length="9.03" shape="192.00,213.60 191.65,211.15 190.60,209.40 188.85,208.35 186.40,208.00"/>
    </edge>
    <edge id=":Node3_1" function="internal">
        <lane id=":Node3_1_0" index="0" speed="13.89" length="27.20" shape="192.00,213.60 192.00,186.40"/>
        <lane id=":Node3_1_1" index="1" speed="13.89" length="27.20" shape="195.20,213.60 195.20,186.40"/>
        <lane id=":Node3_1_2" index="2" speed="13.89" length="27.20" shape="198.40,213.60 198.40,186.40"/>
    </edge>
    <edge id=":Node3_4" function="internal">
        <lane id=":Node3_4_0" index="0" speed="13.89" length="27.20" shape="208.00,186.40 208.00,213.60"/>
        <lane id=":Node3_4_1" index="1" speed="13.89" length="27.20" shape="204.80,186.40 204.80,213.60"/>
        <lane id=":Node3_4_2" index="2" speed="13.89" length="27.20" shape="201.60,186.40 201.60,213.60"/>
    </edge>
    <edge id=":Node3_7" function="internal">
        <lane id=":Node3_7_0" index="0" speed="10.88" length="6.03" shape="201.60,186.40 200.89,192.38"/>
        <lane id=":Node3_7_1" index="1" speed="10.36" length="5.01" shape="201.60,186.40 200.89,191.36"/>
    </edge>
    <edge id=":Node3_12" function="internal">
        <lane id=":Node3_12_0" index="0" speed="10.88" length="21.12" shape="200.89,192.38 200.65,194.45 197.80,200.20 193.05,203.65 186.40,204.80"/>
        <lane id=":Node3_12_1" index="0" speed="10.36" length="19.50" shape="200.89,191.36 200.65,193.05 197.80,197.80 193.05,200.65 186.40,201.60"/>
    </edge>
    <edge id=":Node3_9" function="internal">
        <lane id=":Node3_9_0" index="0" speed="6.51" length="9.03" shape="186.40,192.00 188.85,191.65 190.60,190.60 191.65,188.85 192.00,186.40"/>
    </edge>
    <edge id=":Node3_10" function="internal">
        <lane id=":Node3_10_0" index="0" speed="11.36" length="29.67" shape="186.40,195.20 194.45,196.35 200.20,199.80 203.65,205.55 204.80,213.60"/>
        <lane id=":Node3_10_1" index="1" speed="10.36" length="24.51" shape="186.40,198.40 193.05,199.35 197.80,202.20 200.65,206.95 201.60,213.60"/>
    </edge>
    <edge id=":Node4_0" function="internal">
        <lane id=":Node4_0_0" index="0" speed="11.12" length="28.38" shape="-8.00,109.60 -6.90,101.90 -3.60,96.40 1.90,93.10 9.60,92.00"/>
        <lane id=":Node4_0_1" index="1" speed="10.10" length="23.22" shape="-4.80,109.60 -3.90,103.30 -1.20,98.80 3.30,96.10 9.60,95.20"/>
        <lane id=":Node4_0_2" index="2" speed="8.96" length="18.06" shape="-1.60,109.60 -0.90,104.70 1.20,101.20 4.70,99.10 9.60,98.40"/>
    </edge>
    <edge id=":Node4_3" function="internal">
        <lane id=":Node4_3_0" index="0" speed="3.90" length="2.58" shape="9.60,108.00 8.90,108.10 8.40,108.40 8.10,108.90 8.00,109.60"/>
        <lane id=":Node4_3_1" index="1" speed="6.08" length="7.74" shape="9.60,104.80 7.50,105.10 6.00,106.00 5.10,107.50 4.80,109.60"/>
        <lane id=":Node4_3_2" index="2" speed="7.66" length="12.90" shape="9.60,101.60 6.10,102.10 3.60,103.60 2.10,106.10 1.60,109.60"/>
    </edge>
    <edge id=":Node5_0" function="internal">
        <lane id=":Node5_0_0" index="0" speed="6.51" length="9.03" shape="92.00,113.60 91.65,111.15 90.60,109.40 88.85,108.35 86.40,108.00"/>
    </edge>
    <edge id=":Node5_1" function="internal">
        <lane id=":Node5_1_0" index="0" speed="11.36" length="29.67" shape="95.20,113.60 96.35,105.55 99.80,99.80 105.55,96.35 113.60,95.20"/>
        <lane id=":Node5_1_1" index="1" speed="10.36" length="24.51" shape="98.40,113.60 99.35,106.95 102.20,102.20 106.95,99.35 113.60,98.40"/>
    </edge>
    <edge id=":Node5_3" function="internal">
        <lane id=":Node5_3_0" index="0" speed="6.51" length="9.03" shape="113.60,108.00 111.15,108.35 109.40,109.40 108.35,111.15 108.00,113.60"/>
    </edge>
    <edge id=":Node5_4" function="internal">
        <lane id=":Node5_4_0" index="0" speed="13.89" length="27.20" shape="113.60,108.00 86.40,108.00"/>
        <lane id=":Node5_4_1" index="1" speed="13.89" length="27.20" shape="113.60,104.80 86.40,104.80"/>
        <lane id=":Node5_4_2" index="2" speed="13.89" length="27.20" shape="113.60,101.60 86.40,101.60"/>
    </edge>
    <edge id=":Node5_7" function="internal">
        <lane id=":Node5_7_0" index="0" speed="13.89" length="27.20" shape="86.40,92.00 113.60,92.00"/>
        <lane id=":Node5_7_1" index="1" speed="13.89" length="27.20" shape="86.40,95.20 113.60,95.20"/>
        <lane id=":Node5_7_2" index="2" speed="13.89" length="27.20" shape="86.40,98.40 113.60,98.40"/>
    </edge>
    <edge id=":Node5_10" function="internal">
        <lane id=":Node5_10_0" index="0" speed="10.88" length="6.03" shape="86.40,98.40 92.38,99.11"/>
        <lane id=":Node5_10_1" index="1" speed="10.36" length="5.01" shape="86.40,98.40 91.36,99.11"/>
    </edge>
    <edge id=":Node5_12" function="internal">
        <lane id=":Node5_12_0" index="0" speed="10.88" length="21.12" shape="92.38,99.11 94.45,99.35 100.20,102.20 103.65,106.95 104.80,113.60"/>
        <lane id=":Node5_12_1" index="0" speed="10.36" length="19.50" shape="91.36,99.11 93.05,99.35 97.80,102.20 100.65,106.95 101.60,113.60"/>
    </edge>
    <edge id=":Node6_0" function="internal">
        <lane id=":Node6_0_0" index="0" speed="3.90" length="2.58" shape="192.00,109.60 191.90,108.90 191.60,108.40 191.10,108.10 190.40,108.00"/>
        <lane id=":Node6_0_1" index="1" speed="6.08" length="7.74" shape="195.20,109.60 194.90,107.50 194.00,106.00 192.50,105.10 190.40,104.80"/>
        <lane id=":Node6_0_2" index="2" speed="7.66" length="12.90" shape="198.40,109.60 197.90,106.10 196.40,103.60 193.90,102.10 190.40,101.60"/>
    </edge>
    <edge id=":Node6_3" function="internal">
        <lane id=":Node6_3_0" index="0" speed="11.12" length="28.38" shape="190.40,92.00 198.10,93.10 203.60,96.40 206.90,101.90 208.00,109.60"/>
        <lane id=":Node6_3_1" index="1" speed="10.10" length="23.22" shape="190.40,95.20 196.70,96.10 201.20,98.80 203.90,103.30 204.80,109.60"/>
        <lane id=":Node6_3_2" index="2" speed="8.96" length="18.06" shape="190.40,98.40 195.30,99.10 198.80,101.20 200.90,104.70 201.60,109.60"/>
    </edge>
    <edge id=":Node7_0" function="internal">
        <lane id=":Node7_0_0" index="0" speed="13.89" length="27.20" shape="113.60,308.00 86.40,308.00"/>
        <lane id=":Node7_0_1" index="1" speed="13.89" length="27.20" shape="113.60,304.80 86.40,304.80"/>
        <lane id=":Node7_0_2" index="2" speed="13.89" length="27.20" shape="113.60,301.60 86.40,301.60"/>
    </edge>
    <edge id=":Node7_3" function="internal">
        <lane id=":Node7_3_0" index="0" speed="10.88" length="6.03" shape="113.60,301.60 107.62,300.89"/>
        <lane id=":Node7_3_1" index="1" speed="10.36" length="5.01" shape="113.60,301.60 108.64,300.89"/>
    </edge>
    <edge id=":Node7_12" function="internal">
        <lane id=":Node7_12_0" index="0" speed="10.88" length="21.12" shape="107.62,300.89 105.55,300.65 99.80,297.80 96.35,293.05 95.20,286.40"/>
        <lane id=":Node7_12_1" index="0" speed="10.36" length="19.50" shape="108.64,300.89 106.95,300.65 102.20,297.80 99.35,293.05 98.40,286.40"/>
    </edge>
    <edge id=":Node7_5" function="internal">
        <lane id=":Node7_5_0" index="0" speed="6.51" length="9.03" shape="108.00,286.40 108.35,288.85 109.40,290.60 111.15,291.65 113.60,292.00"/>
    </edge>
    <edge id=":Node7_6" function="internal">
        <lane id=":Node7_6_0" index="0" speed="11.36" length="29.67" shape="104.80,286.40 103.65,294.45 100.20,300.20 94.45,303.65 86.40,304.80"/>
        <lane id=":Node7_6_1" index="1" speed="10.36" length="24.51" shape="101.60,286.40 100.65,293.05 97.80,297.80 93.05,300.65 86.40,301.60"/>
    </edge>
    <edge id=":Node7_8" function="internal">
        <lane id=":Node7_8_0" index="0" speed="6.51" length="9.03" shape="86.40,292.00 88.85,291.65 90.60,290.60 91.65,288.85 92.00,286.40"/>
    </edge>
    <edge id=":Node7_9" function="internal">
        <lane id=":Node7_9_0" index="0" speed="13.89" length="27.20" shape="86.40,292.00 113.60,292.00"/>
        <lane id=":Node7_9_1" index="1" speed="13.89" length="27.20" shape="86.40,295.20 113.60,295.20"/>
        <lane id=":Node7_9_2" index="2" speed="13.89" length="27.20" shape="86.40,298.40 113.60,298.40"/>
    </edge>
    <edge id=":Node8_0" function="internal">
        <lane id=":Node8_0_0" index="0" speed="11.12" length="28.38" shape="9.60,308.00 1.90,306.90 -3.60,303.60 -6.90,298.10 -8.00,290.40"/>
        <lane id=":Node8_0_1" index="1" speed="10.10" length="23.22" shape="9.60,304.80 3.30,303.90 -1.20,301.20 -3.90,296.70 -4.80,290.40"/>
        <lane id=":Node8_0_2" index="2" speed="8.96" length="18.06" shape="9.60,301.60 4.70,300.90 1.20,298.80 -0.90,295.30 -1.60,290.40"/>
    </edge>
    <edge id=":Node8_3" function="internal">
        <lane id=":Node8_3_0" index="0" speed="3.90" length="2.58" shape="8.00,290.40 8.10,291.10 8.40,291.60 8.90,291.90 9.60,292.00"/>
        <lane id=":Node8_3_1" index="1" speed="6.08" length="7.74" shape="4.80,290.40 5.10,292.50 6.00,294.00 7.50,294.90 9.60,295.20"/>
        <lane id=":Node8_3_2" index="2" speed="7.66" length="12.90" shape="1.60,290.40 2.10,293.90 3.60,296.40 6.10,297.90 9.60,298.40"/>
    </edge>
    <edge id=":Node9_0" function="internal">
        <lane id=":Node9_0_0" index="0" speed="11.12" length="28.38" shape="208.00,290.40 206.90,298.10 203.60,303.60 198.10,306.90 190.40,308.00"/>
        <lane id=":Node9_0_1" index="1" speed="10.10" length="23.22" shape="204.80,290.40 203.90,296.70 201.20,301.20 196.70,303.90 190.40,304.80"/>
        <lane id=":Node9_0_2" index="2" speed="8.96" length="18.06" shape="201.60,290.40 200.90,295.30 198.80,298.80 195.30,300.90 190.40,301.60"/>
    </edge>
    <edge id=":Node9_3" function="internal">
        <lane id=":Node9_3_0" index="0" speed="3.90" length="2.58" shape="190.40,292.00 191.10,291.90 191.60,291.60 191.90,291.10 192.00,290.40"/>
        <lane id=":Node9_3_1" index="1" speed="6.08" length="7.74" shape="190.40,295.20 192.50,294.90 194.00,294.00 194.90,292.50 195.20,290.40"/>
        <lane id=":Node9_3_2" index="2" speed="7.66" length="12.90" shape="190.40,298.40 193.90,297.90 196.40,296.40 197.90,293.90 198.40,290.40"/>
    </edge>

    <edge id="Node1_2_EB" from="Node1" to="Node2" priority="-1">
        <lane id="Node1_2_EB_0" index="0" speed="13.89" length="72.80" shape="13.60,192.00 86.40,192.00"/>
        <lane id="Node1_2_EB_1" index="1" speed="13.89" length="72.80" shape="13.60,195.20 86.40,195.20"/>
        <lane id="Node1_2_EB_2" index="2" speed="13.89" length="72.80" shape="13.60,198.40 86.40,198.40"/>
    </edge>
    <edge id="Node1_2_WB" from="Node2" to="Node1" priority="-1">
        <lane id="Node1_2_WB_0" index="0" speed="13.89" length="72.80" shape="86.40,208.00 13.60,208.00"/>
        <lane id="Node1_2_WB_1" index="1" speed="13.89" length="72.80" shape="86.40,204.80 13.60,204.80"/>
        <lane id="Node1_2_WB_2" index="2" speed="13.89" length="72.80" shape="86.40,201.60 13.60,201.60"/>
    </edge>
    <edge id="Node1_4_NB" from="Node4" to="Node1" priority="-1">
        <lane id="Node1_4_NB_0" index="0" speed="13.89" length="76.80" shape="8.00,109.60 8.00,186.40"/>
        <lane id="Node1_4_NB_1" index="1" speed="13.89" length="76.80" shape="4.80,109.60 4.80,186.40"/>
        <lane id="Node1_4_NB_2" index="2" speed="13.89" length="76.80" shape="1.60,109.60 1.60,186.40"/>
    </edge>
    <edge id="Node1_4_SB" from="Node1" to="Node4" priority="-1">
        <lane id="Node1_4_SB_0" index="0" speed="13.89" length="76.80" shape="-8.00,186.40 -8.00,109.60"/>
        <lane id="Node1_4_SB_1" index="1" speed="13.89" length="76.80" shape="-4.80,186.40 -4.80,109.60"/>
        <lane id="Node1_4_SB_2" index="2" speed="13.89" length="76.80" shape="-1.60,186.40 -1.60,109.60"/>
    </edge>
    <edge id="Node2_3_EB" from="Node2" to="Node3" priority="-1">
        <lane id="Node2_3_EB_0" index="0" speed="13.89" length="72.80" shape="113.60,192.00 186.40,192.00"/>
        <lane id="Node2_3_EB_1" index="1" speed="13.89" length="72.80" shape="113.60,195.20 186.40,195.20"/>
        <lane id="Node2_3_EB_2" index="2" speed="13.89" length="72.80" shape="113.60,198.40 186.40,198.40"/>
    </edge>
    <edge id="Node2_3_WB" from="Node3" to="Node2" priority="-1">
        <lane id="Node2_3_WB_0" index="0" speed="13.89" length="72.80" shape="186.40,208.00 113.60,208.00"/>
        <lane id="Node2_3_WB_1" index="1" speed="13.89" length="72.80" shape="186.40,204.80 113.60,204.80"/>
        <lane id="Node2_3_WB_2" index="2" speed="13.89" length="72.80" shape="186.40,201.60 113.60,201.60"/>
    </edge>
    <edge id="Node2_5_NB" from="Node5" to="Node2" priority="-1">
        <lane id="Node2_5_NB_0" index="0" speed="13.89" length="72.80" shape="108.00,113.60 108.00,186.40"/>
        <lane id="Node2_5_NB_1" index="1" speed="13.89" length="72.80" shape="104.80,113.60 104.80,186.40"/>
        <lane id="Node2_5_NB_2" index="2" speed="13.89" length="72.80" shape="101.60,113.60 101.60,186.40"/>
    </edge>
    <edge id="Node2_5_SB" from="Node2" to="Node5" priority="-1">
        <lane id="Node2_5_SB_0" index="0" speed="13.89" length="72.80" shape="92.00,186.40 92.00,113.60"/>
        <lane id="Node2_5_SB_1" index="1" speed="13.89" length="72.80" shape="95.20,186.40 95.20,113.60"/>
        <lane id="Node2_5_SB_2" index="2" speed="13.89" length="72.80" shape="98.40,186.40 98.40,113.60"/>
    </edge>
    <edge id="Node2_7_NB" from="Node2" to="Node7" priority="-1">
        <lane id="Node2_7_NB_0" index="0" speed="13.89" length="72.80" shape="108.00,213.60 108.00,286.40"/>
        <lane id="Node2_7_NB_1" index="1" speed="13.89" length="72.80" shape="104.80,213.60 104.80,286.40"/>
        <lane id="Node2_7_NB_2" index="2" speed="13.89" length="72.80" shape="101.60,213.60 101.60,286.40"/>
    </edge>
    <edge id="Node2_7_SB" from="Node7" to="Node2" priority="-1">
        <lane id="Node2_7_SB_0" index="0" speed="13.89" length="72.80" shape="92.00,286.40 92.00,213.60"/>
        <lane id="Node2_7_SB_1" index="1" speed="13.89" length="72.80" shape="95.20,286.40 95.20,213.60"/>
        <lane id="Node2_7_SB_2" index="2" speed="13.89" length="72.80" shape="98.40,286.40 98.40,213.60"/>
    </edge>
    <edge id="Node3_6_NB" from="Node6" to="Node3" priority="-1">
        <lane id="Node3_6_NB_0" index="0" speed="13.89" length="76.80" shape="208.00,109.60 208.00,186.40"/>
        <lane id="Node3_6_NB_1" index="1" speed="13.89" length="76.80" shape="204.80,109.60 204.80,186.40"/>
        <lane id="Node3_6_NB_2" index="2" speed="13.89" length="76.80" shape="201.60,109.60 201.60,186.40"/>
    </edge>
    <edge id="Node3_6_SB" from="Node3" to="Node6" priority="-1">
        <lane id="Node3_6_SB_0" index="0" speed="13.89" length="76.80" shape="192.00,186.40 192.00,109.60"/>
        <lane id="Node3_6_SB_1" index="1" speed="13.89" length="76.80" shape="195.20,186.40 195.20,109.60"/>
        <lane id="Node3_6_SB_2" index="2" speed="13.89" length="76.80" shape="198.40,186.40 198.40,109.60"/>
    </edge>
    <edge id="Node4_5_EB" from="Node4" to="Node5" priority="-1">
        <lane id="Node4_5_EB_0" index="0" speed="13.89" length="76.80" shape="9.60,92.00 86.40,92.00"/>
        <lane id="Node4_5_EB_1" index="1" speed="13.89" length="76.80" shape="9.60,95.20 86.40,95.20"/>
        <lane id="Node4_5_EB_2" index="2" speed="13.89" length="76.80" shape="9.60,98.40 86.40,98.40"/>
    </edge>
    <edge id="Node4_5_WB" from="Node5" to="Node4" priority="-1">
        <lane id="Node4_5_WB_0" index="0" speed="13.89" length="76.80" shape="86.40,108.00 9.60,108.00"/>
        <lane id="Node4_5_WB_1" index="1" speed="13.89" length="76.80" shape="86.40,104.80 9.60,104.80"/>
        <lane id="Node4_5_WB_2" index="2" speed="13.89" length="76.80" shape="86.40,101.60 9.60,101.60"/>
    </edge>
    <edge id="Node5_6_EB" from="Node5" to="Node6" priority="-1">
        <lane id="Node5_6_EB_0" index="0" speed="13.89" length="76.80" shape="113.60,92.00 190.40,92.00"/>
        <lane id="Node5_6_EB_1" index="1" speed="13.89" length="76.80" shape="113.60,95.20 190.40,95.20"/>
        <lane id="Node5_6_EB_2" index="2" speed="13.89" length="76.80" shape="113.60,98.40 190.40,98.40"/>
    </edge>
    <edge id="Node5_6_WB" from="Node6" to="Node5" priority="-1">
        <lane id="Node5_6_WB_0" index="0" speed="13.89" length="76.80" shape="190.40,108.00 113.60,108.00"/>
        <lane id="Node5_6_WB_1" index="1" speed="13.89" length="76.80" shape="190.40,104.80 113.60,104.80"/>
        <lane id="Node5_6_WB_2" index="2" speed="13.89" length="76.80" shape="190.40,101.60 113.60,101.60"/>
    </edge>
    <edge id="Node7_9_EB" from="Node7" to="Node9" priority="-1">
        <lane id="Node7_9_EB_0" index="0" speed="13.89" length="76.80" shape="113.60,292.00 190.40,292.00"/>
        <lane id="Node7_9_EB_1" index="1" speed="13.89" length="76.80" shape="113.60,295.20 190.40,295.20"/>
        <lane id="Node7_9_EB_2" index="2" speed="13.89" length="76.80" shape="113.60,298.40 190.40,298.40"/>
    </edge>
    <edge id="Node7_9_WB" from="Node9" to="Node7" priority="-1">
        <lane id="Node7_9_WB_0" index="0" speed="13.89" length="76.80" shape="190.40,308.00 113.60,308.00"/>
        <lane id="Node7_9_WB_1" index="1" speed="13.89" length="76.80" shape="190.40,304.80 113.60,304.80"/>
        <lane id="Node7_9_WB_2" index="2" speed="13.89" length="76.80" shape="190.40,301.60 113.60,301.60"/>
    </edge>
    <edge id="Node8_1_NB" from="Node1" to="Node8" priority="-1">
        <lane id="Node8_1_NB_0" index="0" speed="13.89" length="76.80" shape="8.00,213.60 8.00,290.40"/>
        <lane id="Node8_1_NB_1" index="1" speed="13.89" length="76.80" shape="4.80,213.60 4.80,290.40"/>
        <lane id="Node8_1_NB_2" index="2" speed="13.89" length="76.80" shape="1.60,213.60 1.60,290.40"/>
    </edge>
    <edge id="Node8_1_SB" from="Node8" to="Node1" priority="-1">
        <lane id="Node8_1_SB_0" index="0" speed="13.89" length="76.80" shape="-8.00,290.40 -8.00,213.60"/>
        <lane id="Node8_1_SB_1" index="1" speed="13.89" length="76.80" shape="-4.80,290.40 -4.80,213.60"/>
        <lane id="Node8_1_SB_2" index="2" speed="13.89" length="76.80" shape="-1.60,290.40 -1.60,213.60"/>
    </edge>
    <edge id="Node8_7_EB" from="Node8" to="Node7" priority="-1">
        <lane id="Node8_7_EB_0" index="0" speed="13.89" length="76.80" shape="9.60,292.00 86.40,292.00"/>
        <lane id="Node8_7_EB_1" index="1" speed="13.89" length="76.80" shape="9.60,295.20 86.40,295.20"/>
        <lane id="Node8_7_EB_2" index="2" speed="13.89" length="76.80" shape="9.60,298.40 86.40,298.40"/>
    </edge>
    <edge id="Node8_7_WB" from="Node7" to="Node8" priority="-1">
        <lane id="Node8_7_WB_0" index="0" speed="13.89" length="76.80" shape="86.40,308.00 9.60,308.00"/>
        <lane id="Node8_7_WB_1" index="1" speed="13.89" length="76.80" shape="86.40,304.80 9.60,304.80"/>
        <lane id="Node8_7_WB_2" index="2" speed="13.89" length="76.80" shape="86.40,301.60 9.60,301.60"/>
    </edge>
    <edge id="Node9_3_NB" from="Node3" to="Node9" priority="-1">
        <lane id="Node9_3_NB_0" index="0" speed="13.89" length="76.80" shape="208.00,213.60 208.00,290.40"/>
        <lane id="Node9_3_NB_1" index="1" speed="13.89" length="76.80" shape="204.80,213.60 204.80,290.40"/>
        <lane id="Node9_3_NB_2" index="2" speed="13.89" length="76.80" shape="201.60,213.60 201.60,290.40"/>
    </edge>
    <edge id="Node9_3_SB" from="Node9" to="Node3" priority="-1">
        <lane id="Node9_3_SB_0" index="0" speed="13.89" length="76.80" shape="192.00,290.40 192.00,213.60"/>
        <lane id="Node9_3_SB_1" index="1" speed="13.89" length="76.80" shape="195.20,290.40 195.20,213.60"/>
        <lane id="Node9_3_SB_2" index="2" speed="13.89" length="76.80" shape="198.40,290.40 198.40,213.60"/>
    </edge>

    <tlLogic id="Node2" type="static" programID="0" offset="0">
        <phase duration="42" state="GGGGgrrrrrGGGGgrrrrr"/>
        <phase duration="3"  state="yyyyyrrrrryyyyyrrrrr"/>
        <phase duration="42" state="rrrrrGGGGgrrrrrGGGGg"/>
        <phase duration="3"  state="rrrrryyyyyrrrrryyyyy"/>
    </tlLogic>

    <junction id="Node1" type="priority" x="0.00" y="200.00" incLanes="Node8_1_SB_0 Node8_1_SB_1 Node8_1_SB_2 Node1_2_WB_0 Node1_2_WB_1 Node1_2_WB_2 Node1_4_NB_0 Node1_4_NB_1 Node1_4_NB_2" intLanes=":Node1_0_0 :Node1_0_1 :Node1_0_2 :Node1_12_0 :Node1_12_1 :Node1_5_0 :Node1_6_0 :Node1_6_1 :Node1_8_0 :Node1_9_0 :Node1_9_1 :Node1_9_2" shape="-9.60,213.60 9.60,213.60 10.04,211.38 10.60,210.60 11.38,210.04 12.38,209.71 13.60,209.60 13.60,190.40 11.38,189.96 10.60,189.40 10.04,188.62 9.71,187.62 9.60,186.40 -9.60,186.40">
        <request index="0"  response="000000000000" foes="000011000000" cont="0"/>
        <request index="1"  response="000000000000" foes="000011000000" cont="0"/>
        <request index="2"  response="000000000000" foes="000011000000" cont="0"/>
        <request index="3"  response="111000000000" foes="111011000000" cont="1"/>
        <request index="4"  response="111000000000" foes="111011000000" cont="1"/>
        <request index="5"  response="111000000000" foes="111000000000" cont="0"/>
        <request index="6"  response="111000011111" foes="111000011111" cont="0"/>
        <request index="7"  response="111000011111" foes="111000011111" cont="0"/>
        <request index="8"  response="000000000000" foes="000000000000" cont="0"/>
        <request index="9"  response="000000000000" foes="000011111000" cont="0"/>
        <request index="10" response="000000000000" foes="000011111000" cont="0"/>
        <request index="11" response="000000000000" foes="000011111000" cont="0"/>
    </junction>